MODEL 1
REMARK VINA RESULT:      -7.7      0.000      0.000
REMARK  4 active torsions:
REMARK  status: ('A' for Active; 'I' for Inactive)
REMARK    1  A    between atoms: O_2  and  C_3 
REMARK    2  A    between atoms: C_6  and  N_9 
REMARK       I    between atoms: N_9  and  C_10 
REMARK    3  A    between atoms: C_10  and  C_12 
REMARK    4  A    between atoms: C_16  and  N_18 
ROOT
HETATM    1  C   UNL     1      23.401  -4.242 -21.831  1.00  0.00     0.210 C 
HETATM    2  O   UNL     1      23.233  -2.915 -22.327  1.00  0.00    -0.356 OA
ENDROOT
BRANCH   2   3
HETATM    3  C   UNL     1      22.100  -2.279 -21.900  1.00  0.00     0.068 A 
HETATM    4  C   UNL     1      21.178  -1.658 -22.735  1.00  0.00     0.039 A 
HETATM    5  C   UNL     1      20.051  -1.026 -22.197  1.00  0.00     0.032 A 
HETATM    6  C   UNL     1      19.820  -1.013 -20.820  1.00  0.00     0.035 A 
HETATM    7  C   UNL     1      20.744  -1.651 -19.984  1.00  0.00     0.032 A 
HETATM    8  C   UNL     1      21.868  -2.293 -20.524  1.00  0.00     0.039 A 
BRANCH   6   9
HETATM    9  N   UNL     1      18.697  -0.380 -20.230  1.00  0.00    -0.323 N 
HETATM   10  C   UNL     1      18.400   0.972 -20.299  1.00  0.00     0.256 C 
HETATM   11  O   UNL     1      19.024   1.824 -20.923  1.00  0.00    -0.267 OA
HETATM   12  HN  UNL     1      18.003  -0.993 -19.820  1.00  0.00     0.169 HD
BRANCH  10  13
HETATM   13  C   UNL     1      17.174   1.416 -19.584  1.00  0.00     0.034 A 
HETATM   14  C   UNL     1      16.542   2.626 -19.855  1.00  0.00     0.017 A 
HETATM   15  C   UNL     1      15.344   2.922 -19.203  1.00  0.00     0.003 A 
HETATM   16  C   UNL     1      14.788   2.030 -18.267  1.00  0.00     0.030 A 
HETATM   17  C   UNL     1      15.417   0.821 -17.955  1.00  0.00     0.046 A 
HETATM   18  C   UNL     1      16.599   0.526 -18.661  1.00  0.00     0.047 A 
BRANCH  17  19
HETATM   19  N   UNL     1      14.886  -0.121 -17.008  1.00  0.00    -0.252 N 
HETATM   20  C   UNL     1      14.927  -0.024 -15.628  1.00  0.00     0.236 C 
HETATM   21  O   UNL     1      15.517   0.798 -14.928  1.00  0.00    -0.272 OA
HETATM   22  C   UNL     1      14.077  -1.132 -15.024  1.00  0.00     0.096 C 
HETATM   23  C   UNL     1      14.780  -2.139 -14.085  1.00  0.00    -0.000 C 
HETATM   24  C   UNL     1      13.722  -1.994 -16.228  1.00  0.00     0.096 C 
HETATM   25  C   UNL     1      13.739  -3.180 -13.590  1.00  0.00     0.006 C 
HETATM   26  C   UNL     1      15.572  -3.004 -15.060  1.00  0.00     0.011 C 
HETATM   27  C   UNL     1      13.416  -4.000 -14.854  1.00  0.00     0.006 C 
HETATM   28  C   UNL     1      14.341  -3.362 -15.900  1.00  0.00    -0.000 C 
HETATM   29  C   UNL     1      14.385  -1.345 -17.393  1.00  0.00     0.236 C 
HETATM   30  O   UNL     1      14.490  -1.922 -18.468  1.00  0.00    -0.272 OA
ENDBRANCH  17  19
ENDBRANCH  10  13
ENDBRANCH   6   9
ENDBRANCH   2   3
TORSDOF 4
ENDMDL
MODEL 2
REMARK VINA RESULT:      -7.6      9.887     14.089
REMARK  4 active torsions:
REMARK  status: ('A' for Active; 'I' for Inactive)
REMARK    1  A    between atoms: O_2  and  C_3 
REMARK    2  A    between atoms: C_6  and  N_9 
REMARK       I    between atoms: N_9  and  C_10 
REMARK    3  A    between atoms: C_10  and  C_12 
REMARK    4  A    between atoms: C_16  and  N_18 
ROOT
HETATM    1  C   UNL     1      12.314  -2.087 -19.769  1.00  0.00     0.210 C 
HETATM    2  O   UNL     1      11.576  -2.220 -20.981  1.00  0.00    -0.356 OA
ENDROOT
BRANCH   2   3
HETATM    3  C   UNL     1      12.127  -3.070 -21.902  1.00  0.00     0.068 A 
HETATM    4  C   UNL     1      11.440  -3.626 -22.976  1.00  0.00     0.039 A 
HETATM    5  C   UNL     1      12.094  -4.493 -23.859  1.00  0.00     0.032 A 
HETATM    6  C   UNL     1      13.444  -4.809 -23.693  1.00  0.00     0.035 A 
HETATM    7  C   UNL     1      14.134  -4.236 -22.617  1.00  0.00     0.032 A 
HETATM    8  C   UNL     1      13.481  -3.360 -21.738  1.00  0.00     0.039 A 
BRANCH   6   9
HETATM    9  N   UNL     1      14.145  -5.685 -24.558  1.00  0.00    -0.323 N 
HETATM   10  C   UNL     1      14.124  -5.644 -25.944  1.00  0.00     0.256 C 
HETATM   11  O   UNL     1      13.547  -4.815 -26.639  1.00  0.00    -0.267 OA
HETATM   12  HN  UNL     1      14.798  -6.321 -24.118  1.00  0.00     0.169 HD
BRANCH  10  13
HETATM   13  C   UNL     1      14.925  -6.681 -26.647  1.00  0.00     0.034 A 
HETATM   14  C   UNL     1      15.296  -7.881 -26.048  1.00  0.00     0.017 A 
HETATM   15  C   UNL     1      15.967  -8.837 -26.811  1.00  0.00     0.003 A 
HETATM   16  C   UNL     1      16.288  -8.594 -28.159  1.00  0.00     0.030 A 
HETATM   17  C   UNL     1      15.952  -7.387 -28.779  1.00  0.00     0.046 A 
HETATM   18  C   UNL     1      15.236  -6.457 -28.000  1.00  0.00     0.047 A 
BRANCH  17  19
HETATM   19  N   UNL     1      16.259  -7.095 -30.152  1.00  0.00    -0.252 N 
HETATM   20  C   UNL     1      16.685  -5.883 -30.669  1.00  0.00     0.236 C 
HETATM   21  O   UNL     1      16.770  -4.791 -30.109  1.00  0.00    -0.272 OA
HETATM   22  C   UNL     1      17.081  -6.073 -32.126  1.00  0.00     0.096 C 
HETATM   23  C   UNL     1      16.319  -5.245 -33.186  1.00  0.00    -0.000 C 
HETATM   24  C   UNL     1      16.628  -7.495 -32.427  1.00  0.00     0.096 C 
HETATM   25  C   UNL     1      16.874  -5.595 -34.595  1.00  0.00     0.006 C 
HETATM   26  C   UNL     1      14.970  -5.954 -33.253  1.00  0.00     0.011 C 
HETATM   27  C   UNL     1      16.395  -7.042 -34.824  1.00  0.00     0.006 C 
HETATM   28  C   UNL     1      15.589  -7.324 -33.548  1.00  0.00    -0.000 C 
HETATM   29  C   UNL     1      16.012  -7.994 -31.166  1.00  0.00     0.236 C 
HETATM   30  O   UNL     1      15.340  -9.017 -31.148  1.00  0.00    -0.272 OA
ENDBRANCH  17  19
ENDBRANCH  10  13
ENDBRANCH   6   9
ENDBRANCH   2   3
TORSDOF 4
ENDMDL
MODEL 3
REMARK VINA RESULT:      -7.5      8.800     10.062
REMARK  4 active torsions:
REMARK  status: ('A' for Active; 'I' for Inactive)
REMARK    1  A    between atoms: O_2  and  C_3 
REMARK    2  A    between atoms: C_6  and  N_9 
REMARK       I    between atoms: N_9  and  C_10 
REMARK    3  A    between atoms: C_10  and  C_12 
REMARK    4  A    between atoms: C_16  and  N_18 
ROOT
HETATM    1  C   UNL     1      16.451  -6.946 -34.801  1.00  0.00     0.210 C 
HETATM    2  O   UNL     1      16.465  -5.735 -34.047  1.00  0.00    -0.356 OA
ENDROOT
BRANCH   2   3
HETATM    3  C   UNL     1      16.298  -5.894 -32.698  1.00  0.00     0.068 A 
HETATM    4  C   UNL     1      17.022  -5.213 -31.726  1.00  0.00     0.039 A 
HETATM    5  C   UNL     1      16.779  -5.453 -30.368  1.00  0.00     0.032 A 
HETATM    6  C   UNL     1      15.804  -6.365 -29.960  1.00  0.00     0.035 A 
HETATM    7  C   UNL     1      15.068  -7.038 -30.943  1.00  0.00     0.032 A 
HETATM    8  C   UNL     1      15.305  -6.790 -32.303  1.00  0.00     0.039 A 
BRANCH   6   9
HETATM    9  N   UNL     1      15.528  -6.644 -28.598  1.00  0.00    -0.323 N 
HETATM   10  C   UNL     1      14.832  -5.821 -27.727  1.00  0.00     0.256 C 
HETATM   11  O   UNL     1      14.297  -4.753 -28.005  1.00  0.00    -0.267 OA
HETATM   12  HN  UNL     1      15.769  -7.573 -28.274  1.00  0.00     0.169 HD
BRANCH  10  13
HETATM   13  C   UNL     1      14.680  -6.313 -26.332  1.00  0.00     0.034 A 
HETATM   14  C   UNL     1      15.253  -7.500 -25.886  1.00  0.00     0.017 A 
HETATM   15  C   UNL     1      15.138  -7.840 -24.537  1.00  0.00     0.003 A 
HETATM   16  C   UNL     1      14.439  -7.013 -23.638  1.00  0.00     0.030 A 
HETATM   17  C   UNL     1      13.831  -5.829 -24.064  1.00  0.00     0.046 A 
HETATM   18  C   UNL     1      14.000  -5.487 -25.420  1.00  0.00     0.047 A 
BRANCH  17  19
HETATM   19  N   UNL     1      13.108  -4.954 -23.182  1.00  0.00    -0.252 N 
HETATM   20  C   UNL     1      13.636  -3.942 -22.400  1.00  0.00     0.236 C 
HETATM   21  O   UNL     1      14.815  -3.659 -22.195  1.00  0.00    -0.272 OA
HETATM   22  C   UNL     1      12.497  -3.144 -21.780  1.00  0.00     0.096 C 
HETATM   23  C   UNL     1      12.424  -3.087 -20.237  1.00  0.00    -0.000 C 
HETATM   24  C   UNL     1      11.264  -3.960 -22.141  1.00  0.00     0.096 C 
HETATM   25  C   UNL     1      11.193  -2.234 -19.821  1.00  0.00     0.006 C 
HETATM   26  C   UNL     1      11.910  -4.478 -19.879  1.00  0.00     0.011 C 
HETATM   27  C   UNL     1       9.991  -3.107 -20.229  1.00  0.00     0.006 C 
HETATM   28  C   UNL     1      10.676  -4.366 -20.780  1.00  0.00    -0.000 C 
HETATM   29  C   UNL     1      11.771  -5.135 -22.903  1.00  0.00     0.236 C 
HETATM   30  O   UNL     1      11.056  -6.102 -23.132  1.00  0.00    -0.272 OA
ENDBRANCH  17  19
ENDBRANCH  10  13
ENDBRANCH   6   9
ENDBRANCH   2   3
TORSDOF 4
ENDMDL
MODEL 4
REMARK VINA RESULT:      -7.4      5.742      6.699
REMARK  4 active torsions:
REMARK  status: ('A' for Active; 'I' for Inactive)
REMARK    1  A    between atoms: O_2  and  C_3 
REMARK    2  A    between atoms: C_6  and  N_9 
REMARK       I    between atoms: N_9  and  C_10 
REMARK    3  A    between atoms: C_10  and  C_12 
REMARK    4  A    between atoms: C_16  and  N_18 
ROOT
HETATM    1  C   UNL     1      16.368  -6.072 -28.902  1.00  0.00     0.210 C 
HETATM    2  O   UNL     1      15.440  -6.967 -28.292  1.00  0.00    -0.356 OA
ENDROOT
BRANCH   2   3
HETATM    3  C   UNL     1      14.825  -6.483 -27.170  1.00  0.00     0.068 A 
HETATM    4  C   UNL     1      14.897  -7.072 -25.912  1.00  0.00     0.039 A 
HETATM    5  C   UNL     1      14.223  -6.501 -24.826  1.00  0.00     0.032 A 
HETATM    6  C   UNL     1      13.478  -5.329 -24.974  1.00  0.00     0.035 A 
HETATM    7  C   UNL     1      13.419  -4.734 -26.240  1.00  0.00     0.032 A 
HETATM    8  C   UNL     1      14.103  -5.300 -27.326  1.00  0.00     0.039 A 
BRANCH   6   9
HETATM    9  N   UNL     1      12.774  -4.720 -23.905  1.00  0.00    -0.323 N 
HETATM   10  C   UNL     1      13.343  -3.986 -22.876  1.00  0.00     0.256 C 
HETATM   11  O   UNL     1      14.529  -3.699 -22.755  1.00  0.00    -0.267 OA
HETATM   12  HN  UNL     1      11.764  -4.736 -23.968  1.00  0.00     0.169 HD
BRANCH  10  13
HETATM   13  C   UNL     1      12.408  -3.455 -21.848  1.00  0.00     0.034 A 
HETATM   14  C   UNL     1      11.034  -3.369 -22.054  1.00  0.00     0.017 A 
HETATM   15  C   UNL     1      10.220  -2.946 -21.002  1.00  0.00     0.003 A 
HETATM   16  C   UNL     1      10.771  -2.588 -19.757  1.00  0.00     0.030 A 
HETATM   17  C   UNL     1      12.150  -2.639 -19.532  1.00  0.00     0.046 A 
HETATM   18  C   UNL     1      12.944  -3.113 -20.595  1.00  0.00     0.047 A 
BRANCH  17  19
HETATM   19  N   UNL     1      12.756  -2.285 -18.278  1.00  0.00    -0.252 N 
HETATM   20  C   UNL     1      12.902  -1.011 -17.757  1.00  0.00     0.236 C 
HETATM   21  O   UNL     1      12.668   0.073 -18.288  1.00  0.00    -0.272 OA
HETATM   22  C   UNL     1      13.415  -1.113 -16.327  1.00  0.00     0.096 C 
HETATM   23  C   UNL     1      14.768  -0.437 -16.005  1.00  0.00    -0.000 C 
HETATM   24  C   UNL     1      13.740  -2.593 -16.179  1.00  0.00     0.096 C 
HETATM   25  C   UNL     1      15.102  -0.666 -14.505  1.00  0.00     0.006 C 
HETATM   26  C   UNL     1      15.774  -1.388 -16.645  1.00  0.00     0.011 C 
HETATM   27  C   UNL     1      15.402  -2.176 -14.427  1.00  0.00     0.006 C 
HETATM   28  C   UNL     1      15.250  -2.614 -15.890  1.00  0.00    -0.000 C 
HETATM   29  C   UNL     1      13.415  -3.208 -17.496  1.00  0.00     0.236 C 
HETATM   30  O   UNL     1      13.786  -4.340 -17.778  1.00  0.00    -0.272 OA
ENDBRANCH  17  19
ENDBRANCH  10  13
ENDBRANCH   6   9
ENDBRANCH   2   3
TORSDOF 4
ENDMDL
MODEL 5
REMARK VINA RESULT:      -7.3      3.362      4.487
REMARK  4 active torsions:
REMARK  status: ('A' for Active; 'I' for Inactive)
REMARK    1  A    between atoms: O_2  and  C_3 
REMARK    2  A    between atoms: C_6  and  N_9 
REMARK       I    between atoms: N_9  and  C_10 
REMARK    3  A    between atoms: C_10  and  C_12 
REMARK    4  A    between atoms: C_16  and  N_18 
ROOT
HETATM    1  C   UNL     1      23.109  -3.274 -21.936  1.00  0.00     0.210 C 
HETATM    2  O   UNL     1      22.405  -2.108 -22.360  1.00  0.00    -0.356 OA
ENDROOT
BRANCH   2   3
HETATM    3  C   UNL     1      21.194  -1.914 -21.751  1.00  0.00     0.068 A 
HETATM    4  C   UNL     1      20.178  -1.108 -22.253  1.00  0.00     0.039 A 
HETATM    5  C   UNL     1      18.976  -0.968 -21.549  1.00  0.00     0.032 A 
HETATM    6  C   UNL     1      18.765  -1.638 -20.342  1.00  0.00     0.035 A 
HETATM    7  C   UNL     1      19.787  -2.458 -19.848  1.00  0.00     0.032 A 
HETATM    8  C   UNL     1      20.986  -2.606 -20.559  1.00  0.00     0.039 A 
BRANCH   6   9
HETATM    9  N   UNL     1      17.568  -1.521 -19.592  1.00  0.00    -0.323 N 
HETATM   10  C   UNL     1      17.377  -0.698 -18.493  1.00  0.00     0.256 C 
HETATM   11  O   UNL     1      18.188   0.096 -18.029  1.00  0.00    -0.267 OA
HETATM   12  HN  UNL     1      16.758  -2.000 -19.965  1.00  0.00     0.169 HD
BRANCH  10  13
HETATM   13  C   UNL     1      16.038  -0.756 -17.849  1.00  0.00     0.034 A 
HETATM   14  C   UNL     1      15.727  -0.044 -16.694  1.00  0.00     0.017 A 
HETATM   15  C   UNL     1      14.419  -0.083 -16.210  1.00  0.00     0.003 A 
HETATM   16  C   UNL     1      13.427  -0.843 -16.857  1.00  0.00     0.030 A 
HETATM   17  C   UNL     1      13.719  -1.590 -18.003  1.00  0.00     0.046 A 
HETATM   18  C   UNL     1      15.035  -1.498 -18.496  1.00  0.00     0.047 A 
BRANCH  17  19
HETATM   19  N   UNL     1      12.740  -2.381 -18.697  1.00  0.00    -0.252 N 
HETATM   20  C   UNL     1      12.757  -3.753 -18.879  1.00  0.00     0.236 C 
HETATM   21  O   UNL     1      13.647  -4.557 -18.606  1.00  0.00    -0.272 OA
HETATM   22  C   UNL     1      11.436  -4.192 -19.493  1.00  0.00     0.096 C 
HETATM   23  C   UNL     1      11.488  -4.904 -20.864  1.00  0.00    -0.000 C 
HETATM   24  C   UNL     1      10.754  -2.874 -19.830  1.00  0.00     0.096 C 
HETATM   25  C   UNL     1      10.041  -5.257 -21.305  1.00  0.00     0.006 C 
HETATM   26  C   UNL     1      11.781  -3.754 -21.823  1.00  0.00     0.011 C 
HETATM   27  C   UNL     1       9.410  -3.885 -21.612  1.00  0.00     0.006 C 
HETATM   28  C   UNL     1      10.580  -2.925 -21.356  1.00  0.00    -0.000 C 
HETATM   29  C   UNL     1      11.709  -1.811 -19.411  1.00  0.00     0.236 C 
HETATM   30  O   UNL     1      11.560  -0.647 -19.762  1.00  0.00    -0.272 OA
ENDBRANCH  17  19
ENDBRANCH  10  13
ENDBRANCH   6   9
ENDBRANCH   2   3
TORSDOF 4
ENDMDL
MODEL 6
REMARK VINA RESULT:      -7.3     10.142     14.226
REMARK  4 active torsions:
REMARK  status: ('A' for Active; 'I' for Inactive)
REMARK    1  A    between atoms: O_2  and  C_3 
REMARK    2  A    between atoms: C_6  and  N_9 
REMARK       I    between atoms: N_9  and  C_10 
REMARK    3  A    between atoms: C_10  and  C_12 
REMARK    4  A    between atoms: C_16  and  N_18 
ROOT
HETATM    1  C   UNL     1      11.188  -2.813 -19.507  1.00  0.00     0.210 C 
HETATM    2  O   UNL     1      11.713  -2.131 -20.643  1.00  0.00    -0.356 OA
ENDROOT
BRANCH   2   3
HETATM    3  C   UNL     1      12.208  -2.944 -21.627  1.00  0.00     0.068 A 
HETATM    4  C   UNL     1      11.476  -3.401 -22.718  1.00  0.00     0.039 A 
HETATM    5  C   UNL     1      12.073  -4.238 -23.667  1.00  0.00     0.032 A 
HETATM    6  C   UNL     1      13.411  -4.622 -23.552  1.00  0.00     0.035 A 
HETATM    7  C   UNL     1      14.147  -4.148 -22.459  1.00  0.00     0.032 A 
HETATM    8  C   UNL     1      13.551  -3.301 -21.513  1.00  0.00     0.039 A 
BRANCH   6   9
HETATM    9  N   UNL     1      14.055  -5.471 -24.485  1.00  0.00    -0.323 N 
HETATM   10  C   UNL     1      14.015  -5.337 -25.864  1.00  0.00     0.256 C 
HETATM   11  O   UNL     1      13.468  -4.438 -26.493  1.00  0.00    -0.267 OA
HETATM   12  HN  UNL     1      14.683  -6.165 -24.099  1.00  0.00     0.169 HD
BRANCH  10  13
HETATM   13  C   UNL     1      14.753  -6.363 -26.649  1.00  0.00     0.034 A 
HETATM   14  C   UNL     1      15.397  -7.445 -26.056  1.00  0.00     0.017 A 
HETATM   15  C   UNL     1      15.987  -8.409 -26.874  1.00  0.00     0.003 A 
HETATM   16  C   UNL     1      15.956  -8.289 -28.276  1.00  0.00     0.030 A 
HETATM   17  C   UNL     1      15.340  -7.199 -28.897  1.00  0.00     0.046 A 
HETATM   18  C   UNL     1      14.714  -6.263 -28.051  1.00  0.00     0.047 A 
BRANCH  17  19
HETATM   19  N   UNL     1      15.284  -7.034 -30.324  1.00  0.00    -0.252 N 
HETATM   20  C   UNL     1      14.526  -7.773 -31.216  1.00  0.00     0.236 C 
HETATM   21  O   UNL     1      13.854  -8.782 -31.007  1.00  0.00    -0.272 OA
HETATM   22  C   UNL     1      14.616  -7.136 -32.595  1.00  0.00     0.096 C 
HETATM   23  C   UNL     1      15.190  -7.999 -33.743  1.00  0.00    -0.000 C 
HETATM   24  C   UNL     1      15.686  -6.069 -32.416  1.00  0.00     0.096 C 
HETATM   25  C   UNL     1      15.197  -7.159 -35.050  1.00  0.00     0.006 C 
HETATM   26  C   UNL     1      16.683  -8.012 -33.432  1.00  0.00     0.011 C 
HETATM   27  C   UNL     1      16.282  -6.096 -34.792  1.00  0.00     0.006 C 
HETATM   28  C   UNL     1      16.794  -6.484 -33.398  1.00  0.00    -0.000 C 
HETATM   29  C   UNL     1      16.127  -6.178 -30.997  1.00  0.00     0.236 C 
HETATM   30  O   UNL     1      17.142  -5.619 -30.602  1.00  0.00    -0.272 OA
ENDBRANCH  17  19
ENDBRANCH  10  13
ENDBRANCH   6   9
ENDBRANCH   2   3
TORSDOF 4
ENDMDL
MODEL 7
REMARK VINA RESULT:      -7.3      5.709      6.671
REMARK  4 active torsions:
REMARK  status: ('A' for Active; 'I' for Inactive)
REMARK    1  A    between atoms: O_2  and  C_3 
REMARK    2  A    between atoms: C_6  and  N_9 
REMARK       I    between atoms: N_9  and  C_10 
REMARK    3  A    between atoms: C_10  and  C_12 
REMARK    4  A    between atoms: C_16  and  N_18 
ROOT
HETATM    1  C   UNL     1      16.365  -5.853 -28.950  1.00  0.00     0.210 C 
HETATM    2  O   UNL     1      15.381  -6.726 -28.399  1.00  0.00    -0.356 OA
ENDROOT
BRANCH   2   3
HETATM    3  C   UNL     1      14.835  -6.307 -27.216  1.00  0.00     0.068 A 
HETATM    4  C   UNL     1      14.995  -6.957 -25.997  1.00  0.00     0.039 A 
HETATM    5  C   UNL     1      14.387  -6.451 -24.843  1.00  0.00     0.032 A 
HETATM    6  C   UNL     1      13.623  -5.283 -24.882  1.00  0.00     0.035 A 
HETATM    7  C   UNL     1      13.476  -4.625 -26.110  1.00  0.00     0.032 A 
HETATM    8  C   UNL     1      14.093  -5.127 -27.265  1.00  0.00     0.039 A 
BRANCH   6   9
HETATM    9  N   UNL     1      12.985  -4.738 -23.741  1.00  0.00    -0.323 N 
HETATM   10  C   UNL     1      13.606  -4.019 -22.731  1.00  0.00     0.256 C 
HETATM   11  O   UNL     1      14.788  -3.694 -22.690  1.00  0.00    -0.267 OA
HETATM   12  HN  UNL     1      11.974  -4.788 -23.726  1.00  0.00     0.169 HD
BRANCH  10  13
HETATM   13  C   UNL     1      12.737  -3.559 -21.616  1.00  0.00     0.034 A 
HETATM   14  C   UNL     1      11.475  -3.009 -21.823  1.00  0.00     0.017 A 
HETATM   15  C   UNL     1      10.689  -2.690 -20.715  1.00  0.00     0.003 A 
HETATM   16  C   UNL     1      11.162  -2.896 -19.405  1.00  0.00     0.030 A 
HETATM   17  C   UNL     1      12.436  -3.422 -19.169  1.00  0.00     0.046 A 
HETATM   18  C   UNL     1      13.191  -3.777 -20.303  1.00  0.00     0.047 A 
BRANCH  17  19
HETATM   19  N   UNL     1      12.960  -3.650 -17.850  1.00  0.00    -0.252 N 
HETATM   20  C   UNL     1      13.666  -2.751 -17.070  1.00  0.00     0.236 C 
HETATM   21  O   UNL     1      14.097  -1.639 -17.370  1.00  0.00    -0.272 OA
HETATM   22  C   UNL     1      13.854  -3.338 -15.678  1.00  0.00     0.096 C 
HETATM   23  C   UNL     1      15.303  -3.543 -15.180  1.00  0.00    -0.000 C 
HETATM   24  C   UNL     1      13.350  -4.766 -15.832  1.00  0.00     0.096 C 
HETATM   25  C   UNL     1      15.264  -4.153 -13.751  1.00  0.00     0.006 C 
HETATM   26  C   UNL     1      15.755  -4.765 -15.973  1.00  0.00     0.011 C 
HETATM   27  C   UNL     1      14.733  -5.581 -13.981  1.00  0.00     0.006 C 
HETATM   28  C   UNL     1      14.579  -5.630 -15.507  1.00  0.00    -0.000 C 
HETATM   29  C   UNL     1      12.938  -4.893 -17.258  1.00  0.00     0.236 C 
HETATM   30  O   UNL     1      12.710  -5.987 -17.758  1.00  0.00    -0.272 OA
ENDBRANCH  17  19
ENDBRANCH  10  13
ENDBRANCH   6   9
ENDBRANCH   2   3
TORSDOF 4
ENDMDL
MODEL 8
REMARK VINA RESULT:      -7.2      5.773      7.029
REMARK  4 active torsions:
REMARK  status: ('A' for Active; 'I' for Inactive)
REMARK    1  A    between atoms: O_2  and  C_3 
REMARK    2  A    between atoms: C_6  and  N_9 
REMARK       I    between atoms: N_9  and  C_10 
REMARK    3  A    between atoms: C_10  and  C_12 
REMARK    4  A    between atoms: C_16  and  N_18 
ROOT
HETATM    1  C   UNL     1      15.706  -6.293 -28.964  1.00  0.00     0.210 C 
HETATM    2  O   UNL     1      14.673  -6.939 -28.223  1.00  0.00    -0.356 OA
ENDROOT
BRANCH   2   3
HETATM    3  C   UNL     1      14.406  -6.384 -27.001  1.00  0.00     0.068 A 
HETATM    4  C   UNL     1      14.793  -6.930 -25.782  1.00  0.00     0.039 A 
HETATM    5  C   UNL     1      14.463  -6.286 -24.584  1.00  0.00     0.032 A 
HETATM    6  C   UNL     1      13.753  -5.083 -24.582  1.00  0.00     0.035 A 
HETATM    7  C   UNL     1      13.377  -4.531 -25.813  1.00  0.00     0.032 A 
HETATM    8  C   UNL     1      13.717  -5.171 -27.014  1.00  0.00     0.039 A 
BRANCH   6   9
HETATM    9  N   UNL     1      13.392  -4.400 -23.395  1.00  0.00    -0.323 N 
HETATM   10  C   UNL     1      12.250  -4.630 -22.643  1.00  0.00     0.256 C 
HETATM   11  O   UNL     1      11.403  -5.493 -22.850  1.00  0.00    -0.267 OA
HETATM   12  HN  UNL     1      14.086  -3.770 -23.012  1.00  0.00     0.169 HD
BRANCH  10  13
HETATM   13  C   UNL     1      12.067  -3.775 -21.440  1.00  0.00     0.034 A 
HETATM   14  C   UNL     1      11.238  -2.657 -21.430  1.00  0.00     0.017 A 
HETATM   15  C   UNL     1      11.053  -1.966 -20.232  1.00  0.00     0.003 A 
HETATM   16  C   UNL     1      11.706  -2.369 -19.053  1.00  0.00     0.030 A 
HETATM   17  C   UNL     1      12.566  -3.472 -19.041  1.00  0.00     0.046 A 
HETATM   18  C   UNL     1      12.700  -4.179 -20.251  1.00  0.00     0.047 A 
BRANCH  17  19
HETATM   19  N   UNL     1      13.254  -3.921 -17.861  1.00  0.00    -0.252 N 
HETATM   20  C   UNL     1      12.963  -5.045 -17.107  1.00  0.00     0.236 C 
HETATM   21  O   UNL     1      12.007  -5.812 -17.203  1.00  0.00    -0.272 OA
HETATM   22  C   UNL     1      14.058  -5.247 -16.070  1.00  0.00     0.096 C 
HETATM   23  C   UNL     1      13.642  -5.233 -14.581  1.00  0.00    -0.000 C 
HETATM   24  C   UNL     1      14.893  -3.980 -16.194  1.00  0.00     0.096 C 
HETATM   25  C   UNL     1      14.904  -5.450 -13.702  1.00  0.00     0.006 C 
HETATM   26  C   UNL     1      13.394  -3.750 -14.322  1.00  0.00     0.011 C 
HETATM   27  C   UNL     1      15.704  -4.146 -13.888  1.00  0.00     0.006 C 
HETATM   28  C   UNL     1      14.785  -3.328 -14.806  1.00  0.00    -0.000 C 
HETATM   29  C   UNL     1      14.228  -3.164 -17.248  1.00  0.00     0.236 C 
HETATM   30  O   UNL     1      14.516  -1.987 -17.417  1.00  0.00    -0.272 OA
ENDBRANCH  17  19
ENDBRANCH  10  13
ENDBRANCH   6   9
ENDBRANCH   2   3
TORSDOF 4
ENDMDL
MODEL 9
REMARK VINA RESULT:      -7.2      3.230      8.408
REMARK  4 active torsions:
REMARK  status: ('A' for Active; 'I' for Inactive)
REMARK    1  A    between atoms: O_2  and  C_3 
REMARK    2  A    between atoms: C_6  and  N_9 
REMARK       I    between atoms: N_9  and  C_10 
REMARK    3  A    between atoms: C_10  and  C_12 
REMARK    4  A    between atoms: C_16  and  N_18 
ROOT
HETATM    1  C   UNL     1       8.008  -3.522 -21.351  1.00  0.00     0.210 C 
HETATM    2  O   UNL     1       8.993  -4.450 -20.900  1.00  0.00    -0.356 OA
ENDROOT
BRANCH   2   3
HETATM    3  C   UNL     1      10.177  -3.888 -20.507  1.00  0.00     0.068 A 
HETATM    4  C   UNL     1      11.161  -4.547 -19.777  1.00  0.00     0.039 A 
HETATM    5  C   UNL     1      12.337  -3.880 -19.416  1.00  0.00     0.032 A 
HETATM    6  C   UNL     1      12.556  -2.551 -19.786  1.00  0.00     0.035 A 
HETATM    7  C   UNL     1      11.568  -1.897 -20.532  1.00  0.00     0.032 A 
HETATM    8  C   UNL     1      10.394  -2.569 -20.902  1.00  0.00     0.039 A 
BRANCH   6   9
HETATM    9  N   UNL     1      13.728  -1.834 -19.438  1.00  0.00    -0.323 N 
HETATM   10  C   UNL     1      13.895  -1.058 -18.302  1.00  0.00     0.256 C 
HETATM   11  O   UNL     1      13.083  -0.911 -17.394  1.00  0.00    -0.267 OA
HETATM   12  HN  UNL     1      14.542  -1.999 -20.017  1.00  0.00     0.169 HD
BRANCH  10  13
HETATM   13  C   UNL     1      15.210  -0.378 -18.153  1.00  0.00     0.034 A 
HETATM   14  C   UNL     1      15.407   0.700 -17.296  1.00  0.00     0.017 A 
HETATM   15  C   UNL     1      16.694   1.218 -17.149  1.00  0.00     0.003 A 
HETATM   16  C   UNL     1      17.779   0.681 -17.867  1.00  0.00     0.030 A 
HETATM   17  C   UNL     1      17.604  -0.384 -18.756  1.00  0.00     0.046 A 
HETATM   18  C   UNL     1      16.304  -0.917 -18.852  1.00  0.00     0.047 A 
BRANCH  17  19
HETATM   19  N   UNL     1      18.681  -0.965 -19.510  1.00  0.00    -0.252 N 
HETATM   20  C   UNL     1      19.577  -1.926 -19.073  1.00  0.00     0.236 C 
HETATM   21  O   UNL     1      19.725  -2.387 -17.943  1.00  0.00    -0.272 OA
HETATM   22  C   UNL     1      20.419  -2.395 -20.251  1.00  0.00     0.096 C 
HETATM   23  C   UNL     1      21.950  -2.201 -20.155  1.00  0.00    -0.000 C 
HETATM   24  C   UNL     1      20.032  -1.429 -21.362  1.00  0.00     0.096 C 
HETATM   25  C   UNL     1      22.610  -2.738 -21.455  1.00  0.00     0.006 C 
HETATM   26  C   UNL     1      22.108  -0.701 -20.382  1.00  0.00     0.011 C 
HETATM   27  C   UNL     1      22.164  -1.729 -22.532  1.00  0.00     0.006 C 
HETATM   28  C   UNL     1      21.349  -0.718 -21.713  1.00  0.00    -0.000 C 
HETATM   29  C   UNL     1      19.039  -0.499 -20.756  1.00  0.00     0.236 C 
HETATM   30  O   UNL     1      18.711   0.537 -21.319  1.00  0.00    -0.272 OA
ENDBRANCH  17  19
ENDBRANCH  10  13
ENDBRANCH   6   9
ENDBRANCH   2   3
TORSDOF 4
ENDMDL
