MODEL 1
REMARK VINA RESULT:      -7.8      0.000      0.000
REMARK  6 active torsions:
REMARK  status: ('A' for Active; 'I' for Inactive)
REMARK    1  A    between atoms: C_2  and  N_3 
REMARK    2  A    between atoms: C_12  and  C_13 
REMARK    3  A    between atoms: C_16  and  O_31 
REMARK    4  A    between atoms: C_17  and  S_19 
REMARK    5  A    between atoms: S_19  and  N_22 
REMARK    6  A    between atoms: C_25  and  C_28 
REMARK       I    between atoms: C_28  and  N_30 
ROOT
HETATM    1  C   UNL     1      17.356  -7.814 -27.642  1.00  0.00     0.028 C 
HETATM    2  C   UNL     1      15.859  -8.069 -27.600  1.00  0.00     0.148 C 
ENDROOT
BRANCH   2   3
HETATM    3  N   UNL     1      15.230  -7.507 -26.410  1.00  0.00    -0.257 N 
HETATM    4  C   UNL     1      14.485  -6.347 -26.539  1.00  0.00     0.268 C 
HETATM    5  O   UNL     1      14.297  -5.760 -27.605  1.00  0.00    -0.266 OA
HETATM    6  C   UNL     1      13.953  -5.775 -25.275  1.00  0.00     0.020 C 
HETATM    7  C   UNL     1      13.311  -4.417 -25.409  1.00  0.00     0.045 C 
HETATM    8  C   UNL     1      14.082  -6.429 -24.106  1.00  0.00    -0.017 C 
HETATM    9  C   UNL     1      12.496  -4.031 -24.180  1.00  0.00     0.005 C 
HETATM   10  C   UNL     1      13.309  -4.290 -22.921  1.00  0.00     0.005 C 
HETATM   11  C   UNL     1      13.670  -5.776 -22.809  1.00  0.00     0.042 C 
HETATM   12  C   UNL     1      14.731  -7.787 -24.176  1.00  0.00     0.065 C 
HETATM   13  N   UNL     1      15.295  -8.252 -25.254  1.00  0.00    -0.294 N 
HETATM   14  HN  UNL     1      15.776  -9.151 -25.242  1.00  0.00     0.187 HD
BRANCH  12  15
HETATM   15  C   UNL     1      14.759  -8.678 -22.953  1.00  0.00    -0.006 A 
HETATM   16  C   UNL     1      13.883  -9.767 -22.874  1.00  0.00     0.016 A 
HETATM   17  C   UNL     1      13.855 -10.598 -21.737  1.00  0.00     0.039 A 
HETATM   18  C   UNL     1      14.715 -10.373 -20.655  1.00  0.00     0.091 A 
HETATM   19  C   UNL     1      15.584  -9.275 -20.724  1.00  0.00     0.113 A 
HETATM   20  C   UNL     1      15.562  -8.411 -21.839  1.00  0.00     0.042 A 
BRANCH  18  21
HETATM   21  O   UNL     1      14.766 -11.159 -19.541  1.00  0.00    -0.354 OA
HETATM   22  C   UNL     1      13.943 -12.315 -19.472  1.00  0.00     0.210 C 
ENDBRANCH  18  21
BRANCH  19  23
HETATM   23  S   UNL     1      16.655  -8.839 -19.354  1.00  0.00     0.263 S 
HETATM   24  O   UNL     1      16.680  -9.977 -18.457  1.00  0.00    -0.200 OA
HETATM   25  O   UNL     1      17.895  -8.314 -19.871  1.00  0.00    -0.200 OA
BRANCH  23  26
HETATM   26  N   UNL     1      15.808  -7.588 -18.550  1.00  0.00    -0.307 N 
HETATM   27  C   UNL     1      14.339  -7.731 -18.371  1.00  0.00     0.136 C 
HETATM   28  C   UNL     1      13.996  -8.542 -17.118  1.00  0.00     0.034 C 
HETATM   29  C   UNL     1      14.706  -8.025 -15.858  1.00  0.00     0.081 C 
HETATM   30  C   UNL     1      16.207  -7.859 -16.123  1.00  0.00     0.034 C 
HETATM   31  C   UNL     1      16.462  -7.003 -17.358  1.00  0.00     0.136 C 
BRANCH  29  32
HETATM   32  C   UNL     1      14.065  -6.735 -15.350  1.00  0.00     0.219 C 
HETATM   33  O   UNL     1      13.237  -6.086 -15.979  1.00  0.00    -0.273 OA
HETATM   34  N   UNL     1      14.454  -6.331 -14.108  1.00  0.00    -0.370 N 
HETATM   35  HN1 UNL     1      14.958  -6.932 -13.469  1.00  0.00     0.159 HD
HETATM   36  HN2 UNL     1      13.986  -5.520 -13.724  1.00  0.00     0.159 HD
ENDBRANCH  29  32
ENDBRANCH  23  26
ENDBRANCH  19  23
ENDBRANCH  12  15
ENDBRANCH   2   3
TORSDOF 6
ENDMDL
MODEL 2
REMARK VINA RESULT:      -7.8      6.012      8.222
REMARK  6 active torsions:
REMARK  status: ('A' for Active; 'I' for Inactive)
REMARK    1  A    between atoms: C_2  and  N_3 
REMARK    2  A    between atoms: C_12  and  C_13 
REMARK    3  A    between atoms: C_16  and  O_31 
REMARK    4  A    between atoms: C_17  and  S_19 
REMARK    5  A    between atoms: S_19  and  N_22 
REMARK    6  A    between atoms: C_25  and  C_28 
REMARK       I    between atoms: C_28  and  N_30 
ROOT
HETATM    1  C   UNL     1      23.237  -4.586 -21.893  1.00  0.00     0.028 C 
HETATM    2  C   UNL     1      23.028  -3.083 -21.987  1.00  0.00     0.148 C 
ENDROOT
BRANCH   2   3
HETATM    3  N   UNL     1      22.337  -2.543 -20.822  1.00  0.00    -0.257 N 
HETATM    4  C   UNL     1      22.995  -1.614 -20.033  1.00  0.00     0.268 C 
HETATM    5  O   UNL     1      24.129  -1.193 -20.260  1.00  0.00    -0.266 OA
HETATM    6  C   UNL     1      22.273  -1.176 -18.810  1.00  0.00     0.020 C 
HETATM    7  C   UNL     1      23.077  -0.317 -17.868  1.00  0.00     0.045 C 
HETATM    8  C   UNL     1      21.006  -1.564 -18.573  1.00  0.00    -0.017 C 
HETATM    9  C   UNL     1      22.210   0.374 -16.821  1.00  0.00     0.005 C 
HETATM   10  C   UNL     1      21.257  -0.634 -16.196  1.00  0.00     0.005 C 
HETATM   11  C   UNL     1      20.334  -1.236 -17.262  1.00  0.00     0.042 C 
HETATM   12  C   UNL     1      20.360  -2.402 -19.644  1.00  0.00     0.065 C 
HETATM   13  N   UNL     1      21.012  -2.881 -20.665  1.00  0.00    -0.294 N 
HETATM   14  HN  UNL     1      20.550  -3.494 -21.336  1.00  0.00     0.187 HD
BRANCH  12  15
HETATM   15  C   UNL     1      18.886  -2.736 -19.560  1.00  0.00    -0.006 A 
HETATM   16  C   UNL     1      17.971  -2.020 -20.341  1.00  0.00     0.016 A 
HETATM   17  C   UNL     1      16.589  -2.278 -20.264  1.00  0.00     0.039 A 
HETATM   18  C   UNL     1      16.085  -3.272 -19.415  1.00  0.00     0.091 A 
HETATM   19  C   UNL     1      16.996  -3.982 -18.621  1.00  0.00     0.113 A 
HETATM   20  C   UNL     1      18.372  -3.674 -18.658  1.00  0.00     0.042 A 
BRANCH  18  21
HETATM   21  O   UNL     1      14.764  -3.599 -19.318  1.00  0.00    -0.354 OA
HETATM   22  C   UNL     1      13.784  -2.613 -19.617  1.00  0.00     0.210 C 
ENDBRANCH  18  21
BRANCH  19  23
HETATM   23  S   UNL     1      16.448  -5.205 -17.430  1.00  0.00     0.263 S 
HETATM   24  O   UNL     1      15.791  -6.259 -18.177  1.00  0.00    -0.200 OA
HETATM   25  O   UNL     1      17.543  -5.533 -16.550  1.00  0.00    -0.200 OA
BRANCH  23  26
HETATM   26  N   UNL     1      15.233  -4.395 -16.536  1.00  0.00    -0.307 N 
HETATM   27  C   UNL     1      13.988  -5.136 -16.204  1.00  0.00     0.136 C 
HETATM   28  C   UNL     1      14.144  -5.964 -14.925  1.00  0.00     0.034 C 
HETATM   29  C   UNL     1      14.687  -5.146 -13.744  1.00  0.00     0.081 C 
HETATM   30  C   UNL     1      15.943  -4.375 -14.165  1.00  0.00     0.034 C 
HETATM   31  C   UNL     1      15.691  -3.541 -15.417  1.00  0.00     0.136 C 
BRANCH  29  32
HETATM   32  C   UNL     1      13.613  -4.227 -13.167  1.00  0.00     0.219 C 
HETATM   33  O   UNL     1      13.788  -3.040 -12.916  1.00  0.00    -0.273 OA
HETATM   34  N   UNL     1      12.396  -4.802 -12.952  1.00  0.00    -0.370 N 
HETATM   35  HN1 UNL     1      12.140  -5.701 -13.337  1.00  0.00     0.159 HD
HETATM   36  HN2 UNL     1      11.651  -4.191 -12.640  1.00  0.00     0.159 HD
ENDBRANCH  29  32
ENDBRANCH  23  26
ENDBRANCH  19  23
ENDBRANCH  12  15
ENDBRANCH   2   3
TORSDOF 6
ENDMDL
MODEL 3
REMARK VINA RESULT:      -7.8      4.274      7.159
REMARK  6 active torsions:
REMARK  status: ('A' for Active; 'I' for Inactive)
REMARK    1  A    between atoms: C_2  and  N_3 
REMARK    2  A    between atoms: C_12  and  C_13 
REMARK    3  A    between atoms: C_16  and  O_31 
REMARK    4  A    between atoms: C_17  and  S_19 
REMARK    5  A    between atoms: S_19  and  N_22 
REMARK    6  A    between atoms: C_25  and  C_28 
REMARK       I    between atoms: C_28  and  N_30 
ROOT
HETATM    1  C   UNL     1       7.274  -4.249 -20.878  1.00  0.00     0.028 C 
HETATM    2  C   UNL     1       7.987  -2.942 -21.183  1.00  0.00     0.148 C 
ENDROOT
BRANCH   2   3
HETATM    3  N   UNL     1       9.438  -3.087 -21.191  1.00  0.00    -0.257 N 
HETATM    4  C   UNL     1      10.065  -3.400 -22.384  1.00  0.00     0.268 C 
HETATM    5  O   UNL     1       9.480  -3.549 -23.457  1.00  0.00    -0.266 OA
HETATM    6  C   UNL     1      11.532  -3.628 -22.304  1.00  0.00     0.020 C 
HETATM    7  C   UNL     1      12.167  -4.154 -23.567  1.00  0.00     0.045 C 
HETATM    8  C   UNL     1      12.210  -3.405 -21.162  1.00  0.00    -0.017 C 
HETATM    9  C   UNL     1      13.688  -4.050 -23.545  1.00  0.00     0.005 C 
HETATM   10  C   UNL     1      14.221  -4.589 -22.226  1.00  0.00     0.005 C 
HETATM   11  C   UNL     1      13.668  -3.777 -21.048  1.00  0.00     0.042 C 
HETATM   12  C   UNL     1      11.407  -2.856 -20.013  1.00  0.00     0.065 C 
HETATM   13  N   UNL     1      10.108  -2.753 -20.036  1.00  0.00    -0.294 N 
HETATM   14  HN  UNL     1       9.598  -2.432 -19.213  1.00  0.00     0.187 HD
BRANCH  12  15
HETATM   15  C   UNL     1      12.104  -2.401 -18.749  1.00  0.00    -0.006 A 
HETATM   16  C   UNL     1      11.972  -1.072 -18.329  1.00  0.00     0.016 A 
HETATM   17  C   UNL     1      12.634  -0.602 -17.178  1.00  0.00     0.039 A 
HETATM   18  C   UNL     1      13.433  -1.455 -16.406  1.00  0.00     0.091 A 
HETATM   19  C   UNL     1      13.579  -2.783 -16.830  1.00  0.00     0.113 A 
HETATM   20  C   UNL     1      12.963  -3.228 -18.018  1.00  0.00     0.042 A 
BRANCH  18  21
HETATM   21  O   UNL     1      14.072  -1.076 -15.261  1.00  0.00    -0.354 OA
HETATM   22  C   UNL     1      15.004  -0.004 -15.311  1.00  0.00     0.210 C 
ENDBRANCH  18  21
BRANCH  19  23
HETATM   23  S   UNL     1      14.657  -3.929 -15.970  1.00  0.00     0.263 S 
HETATM   24  O   UNL     1      15.957  -3.296 -15.873  1.00  0.00    -0.200 OA
HETATM   25  O   UNL     1      13.999  -4.389 -14.771  1.00  0.00    -0.200 OA
BRANCH  23  26
HETATM   26  N   UNL     1      14.818  -5.239 -17.059  1.00  0.00    -0.307 N 
HETATM   27  C   UNL     1      16.149  -5.487 -17.674  1.00  0.00     0.136 C 
HETATM   28  C   UNL     1      17.041  -6.343 -16.771  1.00  0.00     0.034 C 
HETATM   29  C   UNL     1      16.353  -7.631 -16.295  1.00  0.00     0.081 C 
HETATM   30  C   UNL     1      14.971  -7.311 -15.713  1.00  0.00     0.034 C 
HETATM   31  C   UNL     1      14.130  -6.497 -16.691  1.00  0.00     0.136 C 
BRANCH  29  32
HETATM   32  C   UNL     1      16.279  -8.666 -17.416  1.00  0.00     0.219 C 
HETATM   33  O   UNL     1      15.254  -9.252 -17.743  1.00  0.00    -0.273 OA
HETATM   34  N   UNL     1      17.447  -8.907 -18.075  1.00  0.00    -0.370 N 
HETATM   35  HN1 UNL     1      18.256  -8.306 -17.994  1.00  0.00     0.159 HD
HETATM   36  HN2 UNL     1      17.403  -9.534 -18.869  1.00  0.00     0.159 HD
ENDBRANCH  29  32
ENDBRANCH  23  26
ENDBRANCH  19  23
ENDBRANCH  12  15
ENDBRANCH   2   3
TORSDOF 6
ENDMDL
MODEL 4
REMARK VINA RESULT:      -7.6      4.475      7.172
REMARK  6 active torsions:
REMARK  status: ('A' for Active; 'I' for Inactive)
REMARK    1  A    between atoms: C_2  and  N_3 
REMARK    2  A    between atoms: C_12  and  C_13 
REMARK    3  A    between atoms: C_16  and  O_31 
REMARK    4  A    between atoms: C_17  and  S_19 
REMARK    5  A    between atoms: S_19  and  N_22 
REMARK    6  A    between atoms: C_25  and  C_28 
REMARK       I    between atoms: C_28  and  N_30 
ROOT
HETATM    1  C   UNL     1       8.855  -7.541 -19.205  1.00  0.00     0.028 C 
HETATM    2  C   UNL     1      10.225  -7.990 -19.683  1.00  0.00     0.148 C 
ENDROOT
BRANCH   2   3
HETATM    3  N   UNL     1      10.904  -6.967 -20.471  1.00  0.00    -0.257 N 
HETATM    4  C   UNL     1      11.201  -7.241 -21.795  1.00  0.00     0.268 C 
HETATM    5  O   UNL     1      10.913  -8.292 -22.367  1.00  0.00    -0.266 OA
HETATM    6  C   UNL     1      11.977  -6.196 -22.513  1.00  0.00     0.020 C 
HETATM    7  C   UNL     1      12.457  -6.589 -23.888  1.00  0.00     0.045 C 
HETATM    8  C   UNL     1      12.246  -5.009 -21.938  1.00  0.00    -0.017 C 
HETATM    9  C   UNL     1      12.942  -5.394 -24.702  1.00  0.00     0.005 C 
HETATM   10  C   UNL     1      13.880  -4.544 -23.859  1.00  0.00     0.005 C 
HETATM   11  C   UNL     1      13.155  -4.014 -22.615  1.00  0.00     0.042 C 
HETATM   12  C   UNL     1      11.660  -4.791 -20.568  1.00  0.00     0.065 C 
HETATM   13  N   UNL     1      11.072  -5.732 -19.886  1.00  0.00    -0.294 N 
HETATM   14  HN  UNL     1      10.742  -5.558 -18.936  1.00  0.00     0.187 HD
BRANCH  12  15
HETATM   15  C   UNL     1      11.748  -3.430 -19.912  1.00  0.00    -0.006 A 
HETATM   16  C   UNL     1      11.037  -2.354 -20.458  1.00  0.00     0.016 A 
HETATM   17  C   UNL     1      11.123  -1.065 -19.898  1.00  0.00     0.039 A 
HETATM   18  C   UNL     1      11.909  -0.819 -18.765  1.00  0.00     0.091 A 
HETATM   19  C   UNL     1      12.634  -1.890 -18.223  1.00  0.00     0.113 A 
HETATM   20  C   UNL     1      12.591  -3.164 -18.828  1.00  0.00     0.042 A 
BRANCH  18  21
HETATM   21  O   UNL     1      12.008   0.394 -18.150  1.00  0.00    -0.354 OA
HETATM   22  C   UNL     1      11.191   1.466 -18.601  1.00  0.00     0.210 C 
ENDBRANCH  18  21
BRANCH  19  23
HETATM   23  S   UNL     1      13.746  -1.663 -16.836  1.00  0.00     0.263 S 
HETATM   24  O   UNL     1      14.950  -1.045 -17.355  1.00  0.00    -0.200 OA
HETATM   25  O   UNL     1      13.031  -1.030 -15.754  1.00  0.00    -0.200 OA
BRANCH  23  26
HETATM   26  N   UNL     1      14.162  -3.258 -16.375  1.00  0.00    -0.307 N 
HETATM   27  C   UNL     1      15.570  -3.702 -16.555  1.00  0.00     0.136 C 
HETATM   28  C   UNL     1      16.446  -3.306 -15.364  1.00  0.00     0.034 C 
HETATM   29  C   UNL     1      15.852  -3.735 -14.014  1.00  0.00     0.081 C 
HETATM   30  C   UNL     1      14.390  -3.286 -13.911  1.00  0.00     0.034 C 
HETATM   31  C   UNL     1      13.576  -3.758 -15.111  1.00  0.00     0.136 C 
BRANCH  29  32
HETATM   32  C   UNL     1      16.010  -5.237 -13.792  1.00  0.00     0.219 C 
HETATM   33  O   UNL     1      16.720  -5.963 -14.479  1.00  0.00    -0.273 OA
HETATM   34  N   UNL     1      15.315  -5.755 -12.740  1.00  0.00    -0.370 N 
HETATM   35  HN1 UNL     1      14.896  -5.178 -12.023  1.00  0.00     0.159 HD
HETATM   36  HN2 UNL     1      15.464  -6.734 -12.530  1.00  0.00     0.159 HD
ENDBRANCH  29  32
ENDBRANCH  23  26
ENDBRANCH  19  23
ENDBRANCH  12  15
ENDBRANCH   2   3
TORSDOF 6
ENDMDL
MODEL 5
REMARK VINA RESULT:      -7.6      4.906      8.919
REMARK  6 active torsions:
REMARK  status: ('A' for Active; 'I' for Inactive)
REMARK    1  A    between atoms: C_2  and  N_3 
REMARK    2  A    between atoms: C_12  and  C_13 
REMARK    3  A    between atoms: C_16  and  O_31 
REMARK    4  A    between atoms: C_17  and  S_19 
REMARK    5  A    between atoms: S_19  and  N_22 
REMARK    6  A    between atoms: C_25  and  C_28 
REMARK       I    between atoms: C_28  and  N_30 
ROOT
HETATM    1  C   UNL     1      16.353   1.843 -18.898  1.00  0.00     0.028 C 
HETATM    2  C   UNL     1      15.219   1.923 -17.889  1.00  0.00     0.148 C 
ENDROOT
BRANCH   2   3
HETATM    3  N   UNL     1      14.698   0.608 -17.530  1.00  0.00    -0.257 N 
HETATM    4  C   UNL     1      14.801   0.192 -16.214  1.00  0.00     0.268 C 
HETATM    5  O   UNL     1      15.291   0.868 -15.310  1.00  0.00    -0.266 OA
HETATM    6  C   UNL     1      14.339  -1.193 -15.935  1.00  0.00     0.020 C 
HETATM    7  C   UNL     1      14.635  -1.697 -14.545  1.00  0.00     0.045 C 
HETATM    8  C   UNL     1      13.737  -1.931 -16.886  1.00  0.00    -0.017 C 
HETATM    9  C   UNL     1      13.859  -2.964 -14.204  1.00  0.00     0.005 C 
HETATM   10  C   UNL     1      13.983  -3.965 -15.344  1.00  0.00     0.005 C 
HETATM   11  C   UNL     1      13.404  -3.382 -16.638  1.00  0.00     0.042 C 
HETATM   12  C   UNL     1      13.506  -1.246 -18.207  1.00  0.00     0.065 C 
HETATM   13  N   UNL     1      13.999  -0.076 -18.499  1.00  0.00    -0.294 N 
HETATM   14  HN  UNL     1      13.869   0.326 -19.427  1.00  0.00     0.187 HD
BRANCH  12  15
HETATM   15  C   UNL     1      12.677  -1.921 -19.278  1.00  0.00    -0.006 A 
HETATM   16  C   UNL     1      11.281  -1.918 -19.174  1.00  0.00     0.016 A 
HETATM   17  C   UNL     1      10.477  -2.567 -20.131  1.00  0.00     0.039 A 
HETATM   18  C   UNL     1      11.048  -3.223 -21.229  1.00  0.00     0.091 A 
HETATM   19  C   UNL     1      12.446  -3.241 -21.331  1.00  0.00     0.113 A 
HETATM   20  C   UNL     1      13.245  -2.642 -20.334  1.00  0.00     0.042 A 
BRANCH  18  21
HETATM   21  O   UNL     1      10.329  -3.838 -22.212  1.00  0.00    -0.354 OA
HETATM   22  C   UNL     1       8.917  -3.679 -22.238  1.00  0.00     0.210 C 
ENDBRANCH  18  21
BRANCH  19  23
HETATM   23  S   UNL     1      13.280  -4.135 -22.641  1.00  0.00     0.263 S 
HETATM   24  O   UNL     1      12.478  -3.978 -23.838  1.00  0.00    -0.200 OA
HETATM   25  O   UNL     1      14.672  -3.755 -22.662  1.00  0.00    -0.200 OA
BRANCH  23  26
HETATM   26  N   UNL     1      13.154  -5.775 -22.167  1.00  0.00    -0.307 N 
HETATM   27  C   UNL     1      13.383  -6.827 -23.192  1.00  0.00     0.136 C 
HETATM   28  C   UNL     1      14.870  -7.158 -23.345  1.00  0.00     0.034 C 
HETATM   29  C   UNL     1      15.555  -7.468 -22.006  1.00  0.00     0.081 C 
HETATM   30  C   UNL     1      15.245  -6.370 -20.982  1.00  0.00     0.034 C 
HETATM   31  C   UNL     1      13.743  -6.134 -20.857  1.00  0.00     0.136 C 
BRANCH  29  32
HETATM   32  C   UNL     1      15.170  -8.856 -21.495  1.00  0.00     0.219 C 
HETATM   33  O   UNL     1      15.175  -9.177 -20.313  1.00  0.00    -0.273 OA
HETATM   34  N   UNL     1      14.788  -9.751 -22.449  1.00  0.00    -0.370 N 
HETATM   35  HN1 UNL     1      14.561  -9.479 -23.396  1.00  0.00     0.159 HD
HETATM   36  HN2 UNL     1      14.458 -10.652 -22.124  1.00  0.00     0.159 HD
ENDBRANCH  29  32
ENDBRANCH  23  26
ENDBRANCH  19  23
ENDBRANCH  12  15
ENDBRANCH   2   3
TORSDOF 6
ENDMDL
MODEL 6
REMARK VINA RESULT:      -7.6      3.357      4.915
REMARK  6 active torsions:
REMARK  status: ('A' for Active; 'I' for Inactive)
REMARK    1  A    between atoms: C_2  and  N_3 
REMARK    2  A    between atoms: C_12  and  C_13 
REMARK    3  A    between atoms: C_16  and  O_31 
REMARK    4  A    between atoms: C_17  and  S_19 
REMARK    5  A    between atoms: S_19  and  N_22 
REMARK    6  A    between atoms: C_25  and  C_28 
REMARK       I    between atoms: C_28  and  N_30 
ROOT
HETATM    1  C   UNL     1      10.733  -2.291 -19.877  1.00  0.00     0.028 C 
HETATM    2  C   UNL     1      10.224  -3.319 -20.874  1.00  0.00     0.148 C 
ENDROOT
BRANCH   2   3
HETATM    3  N   UNL     1      11.305  -4.079 -21.492  1.00  0.00    -0.257 N 
HETATM    4  C   UNL     1      11.651  -3.793 -22.801  1.00  0.00     0.268 C 
HETATM    5  O   UNL     1      11.118  -2.919 -23.484  1.00  0.00    -0.266 OA
HETATM    6  C   UNL     1      12.694  -4.667 -23.400  1.00  0.00     0.020 C 
HETATM    7  C   UNL     1      12.921  -4.468 -24.878  1.00  0.00     0.045 C 
HETATM    8  C   UNL     1      13.343  -5.584 -22.660  1.00  0.00    -0.017 C 
HETATM    9  C   UNL     1      14.205  -5.130 -25.367  1.00  0.00     0.005 C 
HETATM   10  C   UNL     1      14.282  -6.555 -24.840  1.00  0.00     0.005 C 
HETATM   11  C   UNL     1      14.292  -6.564 -23.307  1.00  0.00     0.042 C 
HETATM   12  C   UNL     1      12.997  -5.617 -21.195  1.00  0.00     0.065 C 
HETATM   13  N   UNL     1      12.014  -4.934 -20.679  1.00  0.00    -0.294 N 
HETATM   14  HN  UNL     1      11.775  -5.032 -19.693  1.00  0.00     0.187 HD
BRANCH  12  15
HETATM   15  C   UNL     1      13.797  -6.481 -20.245  1.00  0.00    -0.006 A 
HETATM   16  C   UNL     1      13.880  -7.861 -20.471  1.00  0.00     0.016 A 
HETATM   17  C   UNL     1      14.585  -8.702 -19.590  1.00  0.00     0.039 A 
HETATM   18  C   UNL     1      15.243  -8.185 -18.466  1.00  0.00     0.091 A 
HETATM   19  C   UNL     1      15.152  -6.806 -18.228  1.00  0.00     0.113 A 
HETATM   20  C   UNL     1      14.391  -5.980 -19.082  1.00  0.00     0.042 A 
BRANCH  18  21
HETATM   21  O   UNL     1      15.974  -8.936 -17.593  1.00  0.00    -0.354 OA
HETATM   22  C   UNL     1      17.209  -9.490 -18.024  1.00  0.00     0.210 C 
ENDBRANCH  18  21
BRANCH  19  23
HETATM   23  S   UNL     1      15.872  -6.057 -16.768  1.00  0.00     0.263 S 
HETATM   24  O   UNL     1      15.335  -6.762 -15.621  1.00  0.00    -0.200 OA
HETATM   25  O   UNL     1      17.302  -5.963 -16.940  1.00  0.00    -0.200 OA
BRANCH  23  26
HETATM   26  N   UNL     1      15.206  -4.481 -16.742  1.00  0.00    -0.307 N 
HETATM   27  C   UNL     1      13.939  -4.261 -15.995  1.00  0.00     0.136 C 
HETATM   28  C   UNL     1      14.194  -3.999 -14.508  1.00  0.00     0.034 C 
HETATM   29  C   UNL     1      15.232  -2.893 -14.264  1.00  0.00     0.081 C 
HETATM   30  C   UNL     1      16.494  -3.156 -15.094  1.00  0.00     0.034 C 
HETATM   31  C   UNL     1      16.158  -3.360 -16.568  1.00  0.00     0.136 C 
BRANCH  29  32
HETATM   32  C   UNL     1      14.642  -1.511 -14.535  1.00  0.00     0.219 C 
HETATM   33  O   UNL     1      13.502  -1.318 -14.942  1.00  0.00    -0.273 OA
HETATM   34  N   UNL     1      15.465  -0.456 -14.275  1.00  0.00    -0.370 N 
HETATM   35  HN1 UNL     1      16.320  -0.547 -13.742  1.00  0.00     0.159 HD
HETATM   36  HN2 UNL     1      15.068   0.470 -14.377  1.00  0.00     0.159 HD
ENDBRANCH  29  32
ENDBRANCH  23  26
ENDBRANCH  19  23
ENDBRANCH  12  15
ENDBRANCH   2   3
TORSDOF 6
ENDMDL
MODEL 7
REMARK VINA RESULT:      -7.5      4.871      8.472
REMARK  6 active torsions:
REMARK  status: ('A' for Active; 'I' for Inactive)
REMARK    1  A    between atoms: C_2  and  N_3 
REMARK    2  A    between atoms: C_12  and  C_13 
REMARK    3  A    between atoms: C_16  and  O_31 
REMARK    4  A    between atoms: C_17  and  S_19 
REMARK    5  A    between atoms: S_19  and  N_22 
REMARK    6  A    between atoms: C_25  and  C_28 
REMARK       I    between atoms: C_28  and  N_30 
ROOT
HETATM    1  C   UNL     1      16.510   1.791 -19.026  1.00  0.00     0.028 C 
HETATM    2  C   UNL     1      15.237   1.928 -18.207  1.00  0.00     0.148 C 
ENDROOT
BRANCH   2   3
HETATM    3  N   UNL     1      14.768   0.648 -17.687  1.00  0.00    -0.257 N 
HETATM    4  C   UNL     1      14.893   0.398 -16.331  1.00  0.00     0.268 C 
HETATM    5  O   UNL     1      15.361   1.197 -15.520  1.00  0.00    -0.266 OA
HETATM    6  C   UNL     1      14.485  -0.959 -15.883  1.00  0.00     0.020 C 
HETATM    7  C   UNL     1      14.806  -1.279 -14.445  1.00  0.00     0.045 C 
HETATM    8  C   UNL     1      13.906  -1.828 -16.732  1.00  0.00    -0.017 C 
HETATM    9  C   UNL     1      14.080  -2.524 -13.947  1.00  0.00     0.005 C 
HETATM   10  C   UNL     1      14.236  -3.650 -14.958  1.00  0.00     0.005 C 
HETATM   11  C   UNL     1      13.629  -3.250 -16.308  1.00  0.00     0.042 C 
HETATM   12  C   UNL     1      13.643  -1.317 -18.124  1.00  0.00     0.065 C 
HETATM   13  N   UNL     1      14.090  -0.173 -18.560  1.00  0.00    -0.294 N 
HETATM   14  HN  UNL     1      13.941   0.108 -19.529  1.00  0.00     0.187 HD
BRANCH  12  15
HETATM   15  C   UNL     1      12.836  -2.148 -19.098  1.00  0.00    -0.006 A 
HETATM   16  C   UNL     1      11.516  -1.780 -19.388  1.00  0.00     0.016 A 
HETATM   17  C   UNL     1      10.722  -2.548 -20.261  1.00  0.00     0.039 A 
HETATM   18  C   UNL     1      11.231  -3.696 -20.881  1.00  0.00     0.091 A 
HETATM   19  C   UNL     1      12.546  -4.076 -20.583  1.00  0.00     0.113 A 
HETATM   20  C   UNL     1      13.314  -3.336 -19.659  1.00  0.00     0.042 A 
BRANCH  18  21
HETATM   21  O   UNL     1      10.529  -4.464 -21.765  1.00  0.00    -0.354 OA
HETATM   22  C   UNL     1       9.110  -4.403 -21.758  1.00  0.00     0.210 C 
ENDBRANCH  18  21
BRANCH  19  23
HETATM   23  S   UNL     1      13.261  -5.581 -21.244  1.00  0.00     0.263 S 
HETATM   24  O   UNL     1      12.290  -6.637 -21.039  1.00  0.00    -0.200 OA
HETATM   25  O   UNL     1      13.762  -5.324 -22.572  1.00  0.00    -0.200 OA
BRANCH  23  26
HETATM   26  N   UNL     1      14.579  -5.905 -20.201  1.00  0.00    -0.307 N 
HETATM   27  C   UNL     1      14.402  -6.926 -19.135  1.00  0.00     0.136 C 
HETATM   28  C   UNL     1      14.678  -8.340 -19.651  1.00  0.00     0.034 C 
HETATM   29  C   UNL     1      16.026  -8.461 -20.377  1.00  0.00     0.081 C 
HETATM   30  C   UNL     1      16.163  -7.355 -21.431  1.00  0.00     0.034 C 
HETATM   31  C   UNL     1      15.919  -5.977 -20.826  1.00  0.00     0.136 C 
BRANCH  29  32
HETATM   32  C   UNL     1      17.190  -8.460 -19.389  1.00  0.00     0.219 C 
HETATM   33  O   UNL     1      17.060  -8.567 -18.174  1.00  0.00    -0.273 OA
HETATM   34  N   UNL     1      18.432  -8.351 -19.938  1.00  0.00    -0.370 N 
HETATM   35  HN1 UNL     1      18.607  -8.477 -20.926  1.00  0.00     0.159 HD
HETATM   36  HN2 UNL     1      19.220  -8.424 -19.306  1.00  0.00     0.159 HD
ENDBRANCH  29  32
ENDBRANCH  23  26
ENDBRANCH  19  23
ENDBRANCH  12  15
ENDBRANCH   2   3
TORSDOF 6
ENDMDL
MODEL 8
REMARK VINA RESULT:      -7.5      3.231      4.374
REMARK  6 active torsions:
REMARK  status: ('A' for Active; 'I' for Inactive)
REMARK    1  A    between atoms: C_2  and  N_3 
REMARK    2  A    between atoms: C_12  and  C_13 
REMARK    3  A    between atoms: C_16  and  O_31 
REMARK    4  A    between atoms: C_17  and  S_19 
REMARK    5  A    between atoms: S_19  and  N_22 
REMARK    6  A    between atoms: C_25  and  C_28 
REMARK       I    between atoms: C_28  and  N_30 
ROOT
HETATM    1  C   UNL     1      14.036  -5.000 -25.364  1.00  0.00     0.028 C 
HETATM    2  C   UNL     1      12.701  -4.657 -24.725  1.00  0.00     0.148 C 
ENDROOT
BRANCH   2   3
HETATM    3  N   UNL     1      12.819  -4.389 -23.296  1.00  0.00    -0.257 N 
HETATM    4  C   UNL     1      11.944  -3.486 -22.717  1.00  0.00     0.268 C 
HETATM    5  O   UNL     1      11.049  -2.901 -23.326  1.00  0.00    -0.266 OA
HETATM    6  C   UNL     1      12.180  -3.187 -21.280  1.00  0.00     0.020 C 
HETATM    7  C   UNL     1      11.344  -2.065 -20.717  1.00  0.00     0.045 C 
HETATM    8  C   UNL     1      13.103  -3.861 -20.571  1.00  0.00    -0.017 C 
HETATM    9  C   UNL     1      11.374  -2.022 -19.193  1.00  0.00     0.005 C 
HETATM   10  C   UNL     1      12.810  -2.129 -18.702  1.00  0.00     0.005 C 
HETATM   11  C   UNL     1      13.437  -3.453 -19.157  1.00  0.00     0.042 C 
HETATM   12  C   UNL     1      13.821  -4.966 -21.301  1.00  0.00     0.065 C 
HETATM   13  N   UNL     1      13.702  -5.167 -22.582  1.00  0.00    -0.294 N 
HETATM   14  HN  UNL     1      14.253  -5.889 -23.048  1.00  0.00     0.187 HD
BRANCH  12  15
HETATM   15  C   UNL     1      14.743  -5.899 -20.547  1.00  0.00    -0.006 A 
HETATM   16  C   UNL     1      15.282  -7.013 -21.202  1.00  0.00     0.016 A 
HETATM   17  C   UNL     1      16.115  -7.925 -20.525  1.00  0.00     0.039 A 
HETATM   18  C   UNL     1      16.445  -7.737 -19.176  1.00  0.00     0.091 A 
HETATM   19  C   UNL     1      15.897  -6.631 -18.512  1.00  0.00     0.113 A 
HETATM   20  C   UNL     1      15.014  -5.759 -19.182  1.00  0.00     0.042 A 
BRANCH  18  21
HETATM   21  O   UNL     1      17.275  -8.559 -18.470  1.00  0.00    -0.354 OA
HETATM   22  C   UNL     1      16.879  -9.904 -18.235  1.00  0.00     0.210 C 
ENDBRANCH  18  21
BRANCH  19  23
HETATM   23  S   UNL     1      16.177  -6.354 -16.764  1.00  0.00     0.263 S 
HETATM   24  O   UNL     1      15.749  -7.553 -16.071  1.00  0.00    -0.200 OA
HETATM   25  O   UNL     1      17.519  -5.862 -16.571  1.00  0.00    -0.200 OA
BRANCH  23  26
HETATM   26  N   UNL     1      15.063  -5.119 -16.359  1.00  0.00    -0.307 N 
HETATM   27  C   UNL     1      13.878  -5.478 -15.535  1.00  0.00     0.136 C 
HETATM   28  C   UNL     1      14.198  -5.451 -14.038  1.00  0.00     0.034 C 
HETATM   29  C   UNL     1      14.864  -4.141 -13.591  1.00  0.00     0.081 C 
HETATM   30  C   UNL     1      16.048  -3.807 -14.505  1.00  0.00     0.034 C 
HETATM   31  C   UNL     1      15.635  -3.809 -15.973  1.00  0.00     0.136 C 
BRANCH  29  32
HETATM   32  C   UNL     1      13.850  -3.000 -13.522  1.00  0.00     0.219 C 
HETATM   33  O   UNL     1      14.076  -1.857 -13.902  1.00  0.00    -0.273 OA
HETATM   34  N   UNL     1      12.627  -3.326 -13.017  1.00  0.00    -0.370 N 
HETATM   35  HN1 UNL     1      12.322  -4.283 -12.894  1.00  0.00     0.159 HD
HETATM   36  HN2 UNL     1      11.919  -2.603 -13.032  1.00  0.00     0.159 HD
ENDBRANCH  29  32
ENDBRANCH  23  26
ENDBRANCH  19  23
ENDBRANCH  12  15
ENDBRANCH   2   3
TORSDOF 6
ENDMDL
MODEL 9
REMARK VINA RESULT:      -7.5      4.266      5.622
REMARK  6 active torsions:
REMARK  status: ('A' for Active; 'I' for Inactive)
REMARK    1  A    between atoms: C_2  and  N_3 
REMARK    2  A    between atoms: C_12  and  C_13 
REMARK    3  A    between atoms: C_16  and  O_31 
REMARK    4  A    between atoms: C_17  and  S_19 
REMARK    5  A    between atoms: S_19  and  N_22 
REMARK    6  A    between atoms: C_25  and  C_28 
REMARK       I    between atoms: C_28  and  N_30 
ROOT
HETATM    1  C   UNL     1      11.942  -3.718 -23.396  1.00  0.00     0.028 C 
HETATM    2  C   UNL     1      10.894  -3.285 -22.385  1.00  0.00     0.148 C 
ENDROOT
BRANCH   2   3
HETATM    3  N   UNL     1      10.402  -4.398 -21.581  1.00  0.00    -0.257 N 
HETATM    4  C   UNL     1       9.051  -4.700 -21.625  1.00  0.00     0.268 C 
HETATM    5  O   UNL     1       8.230  -4.100 -22.318  1.00  0.00    -0.266 OA
HETATM    6  C   UNL     1       8.600  -5.782 -20.711  1.00  0.00     0.020 C 
HETATM    7  C   UNL     1       7.106  -5.966 -20.630  1.00  0.00     0.045 C 
HETATM    8  C   UNL     1       9.483  -6.501 -19.994  1.00  0.00    -0.017 C 
HETATM    9  C   UNL     1       6.714  -7.279 -19.960  1.00  0.00     0.005 C 
HETATM   10  C   UNL     1       7.504  -7.454 -18.671  1.00  0.00     0.005 C 
HETATM   11  C   UNL     1       9.008  -7.496 -18.963  1.00  0.00     0.042 C 
HETATM   12  C   UNL     1      10.937  -6.188 -20.229  1.00  0.00     0.065 C 
HETATM   13  N   UNL     1      11.341  -5.175 -20.943  1.00  0.00    -0.294 N 
HETATM   14  HN  UNL     1      12.335  -4.963 -21.027  1.00  0.00     0.187 HD
BRANCH  12  15
HETATM   15  C   UNL     1      12.010  -7.059 -19.614  1.00  0.00    -0.006 A 
HETATM   16  C   UNL     1      12.255  -8.331 -20.146  1.00  0.00     0.016 A 
HETATM   17  C   UNL     1      13.220  -9.184 -19.578  1.00  0.00     0.039 A 
HETATM   18  C   UNL     1      13.981  -8.782 -18.472  1.00  0.00     0.091 A 
HETATM   19  C   UNL     1      13.731  -7.515 -17.928  1.00  0.00     0.113 A 
HETATM   20  C   UNL     1      12.718  -6.692 -18.464  1.00  0.00     0.042 A 
BRANCH  18  21
HETATM   21  O   UNL     1      14.957  -9.542 -17.897  1.00  0.00    -0.354 OA
HETATM   22  C   UNL     1      16.157  -9.787 -18.617  1.00  0.00     0.210 C 
ENDBRANCH  18  21
BRANCH  19  23
HETATM   23  S   UNL     1      14.577  -6.942 -16.455  1.00  0.00     0.263 S 
HETATM   24  O   UNL     1      14.153  -7.797 -15.364  1.00  0.00    -0.200 OA
HETATM   25  O   UNL     1      15.984  -6.801 -16.743  1.00  0.00    -0.200 OA
BRANCH  23  26
HETATM   26  N   UNL     1      13.905  -5.395 -16.169  1.00  0.00    -0.307 N 
HETATM   27  C   UNL     1      13.308  -5.119 -14.835  1.00  0.00     0.136 C 
HETATM   28  C   UNL     1      14.363  -4.667 -13.822  1.00  0.00     0.034 C 
HETATM   29  C   UNL     1      15.232  -3.511 -14.339  1.00  0.00     0.081 C 
HETATM   30  C   UNL     1      15.781  -3.839 -15.732  1.00  0.00     0.034 C 
HETATM   31  C   UNL     1      14.663  -4.235 -16.691  1.00  0.00     0.136 C 
BRANCH  29  32
HETATM   32  C   UNL     1      14.465  -2.190 -14.319  1.00  0.00     0.219 C 
HETATM   33  O   UNL     1      14.560  -1.328 -15.185  1.00  0.00    -0.273 OA
HETATM   34  N   UNL     1      13.622  -2.012 -13.263  1.00  0.00    -0.370 N 
HETATM   35  HN1 UNL     1      13.347  -2.766 -12.648  1.00  0.00     0.159 HD
HETATM   36  HN2 UNL     1      13.050  -1.176 -13.271  1.00  0.00     0.159 HD
ENDBRANCH  29  32
ENDBRANCH  23  26
ENDBRANCH  19  23
ENDBRANCH  12  15
ENDBRANCH   2   3
TORSDOF 6
ENDMDL
