MODEL 1
REMARK VINA RESULT:      -7.1      0.000      0.000
REMARK  5 active torsions:
REMARK  status: ('A' for Active; 'I' for Inactive)
REMARK    1  A    between atoms: C_2  and  C_3 
REMARK    2  A    between atoms: C_3  and  C_4 
REMARK    3  A    between atoms: C_3  and  N_17 
REMARK       I    between atoms: C_4  and  N_6 
REMARK    4  A    between atoms: N_6  and  C_7 
REMARK    5  A    between atoms: C_22  and  C_23 
ROOT
HETATM    1  C   UNL     1      12.370  -8.347 -27.441  1.00  0.00     0.007 C 
HETATM    2  C   UNL     1      13.326  -8.893 -28.496  1.00  0.00     0.032 C 
ENDROOT
BRANCH   2   3
HETATM    3  C   UNL     1      14.821  -8.728 -28.155  1.00  0.00     0.203 C 
BRANCH   3   4
HETATM    4  C   UNL     1      15.655  -9.959 -28.583  1.00  0.00     0.247 C 
HETATM    5  O   UNL     1      16.877  -9.998 -28.433  1.00  0.00    -0.271 OA
HETATM    6  N   UNL     1      14.951 -10.938 -29.260  1.00  0.00    -0.325 N 
HETATM    7  HN  UNL     1      14.016 -10.690 -29.560  1.00  0.00     0.169 HD
BRANCH   6   8
HETATM    8  C   UNL     1      15.464 -12.185 -29.639  1.00  0.00     0.037 A 
HETATM    9  C   UNL     1      16.316 -12.328 -30.741  1.00  0.00     0.032 A 
HETATM   10  C   UNL     1      16.839 -13.581 -31.067  1.00  0.00     0.042 A 
HETATM   11  C   UNL     1      16.475 -14.696 -30.319  1.00  0.00     0.102 A 
HETATM   12  C   UNL     1      15.584 -14.560 -29.249  1.00  0.00     0.104 A 
HETATM   13  O   UNL     1      17.019 -15.897 -30.697  1.00  0.00    -0.346 OA
HETATM   14  C   UNL     1      15.125 -13.300 -28.871  1.00  0.00     0.069 A 
HETATM   15  O   UNL     1      15.108 -15.629 -28.530  1.00  0.00    -0.346 OA
HETATM   16  C   UNL     1      15.354 -16.860 -29.223  1.00  0.00     0.202 C 
HETATM   17  C   UNL     1      16.795 -16.904 -29.702  1.00  0.00     0.202 C 
ENDBRANCH   6   8
ENDBRANCH   3   4
BRANCH   3  18
HETATM   18  N   UNL     1      15.350  -7.478 -28.748  1.00  0.00    -0.243 N 
HETATM   19  C   UNL     1      15.618  -6.379 -27.946  1.00  0.00     0.262 A 
HETATM   20  O   UNL     1      15.414  -6.317 -26.736  1.00  0.00    -0.267 OA
HETATM   21  C   UNL     1      16.259  -5.230 -28.617  1.00  0.00     0.078 A 
HETATM   22  C   UNL     1      16.517  -5.251 -29.926  1.00  0.00     0.037 A 
HETATM   23  C   UNL     1      16.096  -6.455 -30.676  1.00  0.00     0.058 A 
HETATM   24  N   UNL     1      15.568  -7.497 -30.111  1.00  0.00    -0.294 N 
HETATM   25  HN  UNL     1      15.318  -8.316 -30.664  1.00  0.00     0.187 HD
BRANCH  23  26
HETATM   26  C   UNL     1      16.346  -6.480 -32.150  1.00  0.00    -0.008 A 
HETATM   27  C   UNL     1      16.534  -5.263 -32.824  1.00  0.00     0.014 A 
HETATM   28  C   UNL     1      16.746  -5.246 -34.205  1.00  0.00     0.001 A 
HETATM   29  C   UNL     1      16.778  -6.441 -34.920  1.00  0.00     0.000 A 
HETATM   30  C   UNL     1      16.615  -7.655 -34.255  1.00  0.00     0.001 A 
HETATM   31  C   UNL     1      16.407  -7.678 -32.873  1.00  0.00     0.014 A 
ENDBRANCH  23  26
ENDBRANCH   3  18
ENDBRANCH   2   3
TORSDOF 5
ENDMDL
MODEL 2
REMARK VINA RESULT:      -7.1     10.941     14.221
REMARK  5 active torsions:
REMARK  status: ('A' for Active; 'I' for Inactive)
REMARK    1  A    between atoms: C_2  and  C_3 
REMARK    2  A    between atoms: C_3  and  C_4 
REMARK    3  A    between atoms: C_3  and  N_17 
REMARK       I    between atoms: C_4  and  N_6 
REMARK    4  A    between atoms: N_6  and  C_7 
REMARK    5  A    between atoms: C_22  and  C_23 
ROOT
HETATM    1  C   UNL     1      13.731  -3.515 -14.446  1.00  0.00     0.007 C 
HETATM    2  C   UNL     1      13.850  -3.775 -15.944  1.00  0.00     0.032 C 
ENDROOT
BRANCH   2   3
HETATM    3  C   UNL     1      14.371  -2.578 -16.764  1.00  0.00     0.203 C 
BRANCH   3   4
HETATM    4  C   UNL     1      15.733  -2.881 -17.436  1.00  0.00     0.247 C 
HETATM    5  O   UNL     1      16.057  -4.026 -17.755  1.00  0.00    -0.271 OA
HETATM    6  N   UNL     1      16.595  -1.804 -17.526  1.00  0.00    -0.325 N 
HETATM    7  HN  UNL     1      16.335  -0.978 -17.001  1.00  0.00     0.169 HD
BRANCH   6   8
HETATM    8  C   UNL     1      17.825  -1.809 -18.195  1.00  0.00     0.037 A 
HETATM    9  C   UNL     1      19.032  -2.018 -17.519  1.00  0.00     0.032 A 
HETATM   10  C   UNL     1      20.237  -2.055 -18.223  1.00  0.00     0.042 A 
HETATM   11  C   UNL     1      20.238  -1.836 -19.598  1.00  0.00     0.102 A 
HETATM   12  C   UNL     1      19.036  -1.577 -20.266  1.00  0.00     0.104 A 
HETATM   13  O   UNL     1      21.455  -1.879 -20.228  1.00  0.00    -0.346 OA
HETATM   14  C   UNL     1      17.825  -1.622 -19.578  1.00  0.00     0.069 A 
HETATM   15  O   UNL     1      18.975  -1.259 -21.600  1.00  0.00    -0.346 OA
HETATM   16  C   UNL     1      20.269  -0.895 -22.098  1.00  0.00     0.202 C 
HETATM   17  C   UNL     1      21.300  -1.917 -21.652  1.00  0.00     0.202 C 
ENDBRANCH   6   8
ENDBRANCH   3   4
BRANCH   3  18
HETATM   18  N   UNL     1      13.357  -2.152 -17.755  1.00  0.00    -0.243 N 
HETATM   19  C   UNL     1      12.420  -1.182 -17.429  1.00  0.00     0.262 A 
HETATM   20  O   UNL     1      12.314  -0.640 -16.332  1.00  0.00    -0.267 OA
HETATM   21  C   UNL     1      11.537  -0.741 -18.527  1.00  0.00     0.078 A 
HETATM   22  C   UNL     1      11.620  -1.287 -19.742  1.00  0.00     0.037 A 
HETATM   23  C   UNL     1      12.607  -2.375 -19.925  1.00  0.00     0.058 A 
HETATM   24  N   UNL     1      13.424  -2.758 -18.993  1.00  0.00    -0.294 N 
HETATM   25  HN  UNL     1      14.107  -3.494 -19.173  1.00  0.00     0.187 HD
BRANCH  23  26
HETATM   26  C   UNL     1      12.689  -3.020 -21.271  1.00  0.00    -0.008 A 
HETATM   27  C   UNL     1      11.539  -3.052 -22.076  1.00  0.00     0.014 A 
HETATM   28  C   UNL     1      11.573  -3.668 -23.330  1.00  0.00     0.001 A 
HETATM   29  C   UNL     1      12.751  -4.250 -23.790  1.00  0.00     0.000 A 
HETATM   30  C   UNL     1      13.903  -4.203 -23.006  1.00  0.00     0.001 A 
HETATM   31  C   UNL     1      13.877  -3.584 -21.753  1.00  0.00     0.014 A 
ENDBRANCH  23  26
ENDBRANCH   3  18
ENDBRANCH   2   3
TORSDOF 5
ENDMDL
MODEL 3
REMARK VINA RESULT:      -7.1     11.441     13.543
REMARK  5 active torsions:
REMARK  status: ('A' for Active; 'I' for Inactive)
REMARK    1  A    between atoms: C_2  and  C_3 
REMARK    2  A    between atoms: C_3  and  C_4 
REMARK    3  A    between atoms: C_3  and  N_17 
REMARK       I    between atoms: C_4  and  N_6 
REMARK    4  A    between atoms: N_6  and  C_7 
REMARK    5  A    between atoms: C_22  and  C_23 
ROOT
HETATM    1  C   UNL     1      19.584  -1.157 -21.828  1.00  0.00     0.007 C 
HETATM    2  C   UNL     1      20.872  -1.728 -22.410  1.00  0.00     0.032 C 
ENDROOT
BRANCH   2   3
HETATM    3  C   UNL     1      21.932  -2.119 -21.362  1.00  0.00     0.203 C 
BRANCH   3   4
HETATM    4  C   UNL     1      22.729  -3.379 -21.781  1.00  0.00     0.247 C 
HETATM    5  O   UNL     1      23.714  -3.308 -22.517  1.00  0.00    -0.271 OA
HETATM    6  N   UNL     1      22.175  -4.582 -21.381  1.00  0.00    -0.325 N 
HETATM    7  HN  UNL     1      21.233  -4.540 -21.011  1.00  0.00     0.169 HD
BRANCH   6   8
HETATM    8  C   UNL     1      22.774  -5.838 -21.541  1.00  0.00     0.037 A 
HETATM    9  C   UNL     1      22.213  -6.823 -22.362  1.00  0.00     0.032 A 
HETATM   10  C   UNL     1      22.856  -8.051 -22.528  1.00  0.00     0.042 A 
HETATM   11  C   UNL     1      24.037  -8.309 -21.839  1.00  0.00     0.102 A 
HETATM   12  C   UNL     1      24.571  -7.342 -20.979  1.00  0.00     0.104 A 
HETATM   13  O   UNL     1      24.615  -9.536 -22.041  1.00  0.00    -0.346 OA
HETATM   14  C   UNL     1      23.975  -6.087 -20.876  1.00  0.00     0.069 A 
HETATM   15  O   UNL     1      25.677  -7.565 -20.197  1.00  0.00    -0.346 OA
HETATM   16  C   UNL     1      25.972  -8.965 -20.118  1.00  0.00     0.202 C 
HETATM   17  C   UNL     1      25.944  -9.578 -21.507  1.00  0.00     0.202 C 
ENDBRANCH   6   8
ENDBRANCH   3   4
BRANCH   3  18
HETATM   18  N   UNL     1      22.831  -0.974 -21.085  1.00  0.00    -0.243 N 
HETATM   19  C   UNL     1      23.475  -0.868 -19.862  1.00  0.00     0.262 A 
HETATM   20  O   UNL     1      23.341  -1.644 -18.920  1.00  0.00    -0.267 OA
HETATM   21  C   UNL     1      24.443   0.241 -19.736  1.00  0.00     0.078 A 
HETATM   22  C   UNL     1      24.638   1.104 -20.735  1.00  0.00     0.037 A 
HETATM   23  C   UNL     1      23.816   0.922 -21.952  1.00  0.00     0.058 A 
HETATM   24  N   UNL     1      22.988  -0.063 -22.110  1.00  0.00    -0.294 N 
HETATM   25  HN  UNL     1      22.461  -0.164 -22.978  1.00  0.00     0.187 HD
BRANCH  23  26
HETATM   26  C   UNL     1      23.998   1.902 -23.067  1.00  0.00    -0.008 A 
HETATM   27  C   UNL     1      23.400   3.167 -22.959  1.00  0.00     0.014 A 
HETATM   28  C   UNL     1      23.529   4.099 -23.992  1.00  0.00     0.001 A 
HETATM   29  C   UNL     1      24.257   3.777 -25.135  1.00  0.00     0.000 A 
HETATM   30  C   UNL     1      24.873   2.531 -25.240  1.00  0.00     0.001 A 
HETATM   31  C   UNL     1      24.752   1.597 -24.208  1.00  0.00     0.014 A 
ENDBRANCH  23  26
ENDBRANCH   3  18
ENDBRANCH   2   3
TORSDOF 5
ENDMDL
MODEL 4
REMARK VINA RESULT:      -7.0      9.349     13.020
REMARK  5 active torsions:
REMARK  status: ('A' for Active; 'I' for Inactive)
REMARK    1  A    between atoms: C_2  and  C_3 
REMARK    2  A    between atoms: C_3  and  C_4 
REMARK    3  A    between atoms: C_3  and  N_17 
REMARK       I    between atoms: C_4  and  N_6 
REMARK    4  A    between atoms: N_6  and  C_7 
REMARK    5  A    between atoms: C_22  and  C_23 
ROOT
HETATM    1  C   UNL     1      19.438  -7.381 -20.515  1.00  0.00     0.007 C 
HETATM    2  C   UNL     1      18.018  -6.956 -20.160  1.00  0.00     0.032 C 
ENDROOT
BRANCH   2   3
HETATM    3  C   UNL     1      17.125  -8.090 -19.618  1.00  0.00     0.203 C 
BRANCH   3   4
HETATM    4  C   UNL     1      16.433  -7.702 -18.288  1.00  0.00     0.247 C 
HETATM    5  O   UNL     1      16.565  -8.378 -17.267  1.00  0.00    -0.271 OA
HETATM    6  N   UNL     1      15.563  -6.631 -18.372  1.00  0.00    -0.325 N 
HETATM    7  HN  UNL     1      15.329  -6.316 -19.306  1.00  0.00     0.169 HD
BRANCH   6   8
HETATM    8  C   UNL     1      14.917  -6.029 -17.284  1.00  0.00     0.037 A 
HETATM    9  C   UNL     1      13.645  -6.436 -16.864  1.00  0.00     0.032 A 
HETATM   10  C   UNL     1      13.047  -5.840 -15.752  1.00  0.00     0.042 A 
HETATM   11  C   UNL     1      13.702  -4.806 -15.089  1.00  0.00     0.102 A 
HETATM   12  C   UNL     1      14.952  -4.367 -15.540  1.00  0.00     0.104 A 
HETATM   13  O   UNL     1      13.058  -4.260 -14.009  1.00  0.00    -0.346 OA
HETATM   14  C   UNL     1      15.586  -5.015 -16.597  1.00  0.00     0.069 A 
HETATM   15  O   UNL     1      15.610  -3.292 -14.993  1.00  0.00    -0.346 OA
HETATM   16  C   UNL     1      14.722  -2.508 -14.185  1.00  0.00     0.202 C 
HETATM   17  C   UNL     1      13.935  -3.414 -13.254  1.00  0.00     0.202 C 
ENDBRANCH   6   8
ENDBRANCH   3   4
BRANCH   3  18
HETATM   18  N   UNL     1      16.140  -8.506 -20.643  1.00  0.00    -0.243 N 
HETATM   19  C   UNL     1      15.549  -9.759 -20.581  1.00  0.00     0.262 A 
HETATM   20  O   UNL     1      15.800 -10.621 -19.741  1.00  0.00    -0.267 OA
HETATM   21  C   UNL     1      14.491 -10.025 -21.576  1.00  0.00     0.078 A 
HETATM   22  C   UNL     1      14.169  -9.118 -22.500  1.00  0.00     0.037 A 
HETATM   23  C   UNL     1      14.944  -7.857 -22.504  1.00  0.00     0.058 A 
HETATM   24  N   UNL     1      15.850  -7.576 -21.620  1.00  0.00    -0.294 N 
HETATM   25  HN  UNL     1      16.340  -6.682 -21.646  1.00  0.00     0.187 HD
BRANCH  23  26
HETATM   26  C   UNL     1      14.618  -6.844 -23.555  1.00  0.00    -0.008 A 
HETATM   27  C   UNL     1      14.117  -5.595 -23.156  1.00  0.00     0.014 A 
HETATM   28  C   UNL     1      13.779  -4.633 -24.111  1.00  0.00     0.001 A 
HETATM   29  C   UNL     1      13.943  -4.908 -25.467  1.00  0.00     0.000 A 
HETATM   30  C   UNL     1      14.462  -6.137 -25.870  1.00  0.00     0.001 A 
HETATM   31  C   UNL     1      14.806  -7.101 -24.919  1.00  0.00     0.014 A 
ENDBRANCH  23  26
ENDBRANCH   3  18
ENDBRANCH   2   3
TORSDOF 5
ENDMDL
MODEL 5
REMARK VINA RESULT:      -6.9     10.831     13.334
REMARK  5 active torsions:
REMARK  status: ('A' for Active; 'I' for Inactive)
REMARK    1  A    between atoms: C_2  and  C_3 
REMARK    2  A    between atoms: C_3  and  C_4 
REMARK    3  A    between atoms: C_3  and  N_17 
REMARK       I    between atoms: C_4  and  N_6 
REMARK    4  A    between atoms: N_6  and  C_7 
REMARK    5  A    between atoms: C_22  and  C_23 
ROOT
HETATM    1  C   UNL     1      14.619  -4.812 -13.123  1.00  0.00     0.007 C 
HETATM    2  C   UNL     1      13.818  -4.626 -14.407  1.00  0.00     0.032 C 
ENDROOT
BRANCH   2   3
HETATM    3  C   UNL     1      14.614  -4.013 -15.577  1.00  0.00     0.203 C 
BRANCH   3   4
HETATM    4  C   UNL     1      15.087  -5.088 -16.586  1.00  0.00     0.247 C 
HETATM    5  O   UNL     1      15.764  -4.796 -17.573  1.00  0.00    -0.271 OA
HETATM    6  N   UNL     1      14.585  -6.357 -16.368  1.00  0.00    -0.325 N 
HETATM    7  HN  UNL     1      13.835  -6.432 -15.691  1.00  0.00     0.169 HD
BRANCH   6   8
HETATM    8  C   UNL     1      14.962  -7.506 -17.075  1.00  0.00     0.037 A 
HETATM    9  C   UNL     1      16.198  -8.130 -16.866  1.00  0.00     0.032 A 
HETATM   10  C   UNL     1      16.524  -9.295 -17.560  1.00  0.00     0.042 A 
HETATM   11  C   UNL     1      15.635  -9.812 -18.497  1.00  0.00     0.102 A 
HETATM   12  C   UNL     1      14.421  -9.160 -18.743  1.00  0.00     0.104 A 
HETATM   13  O   UNL     1      16.019 -10.955 -19.149  1.00  0.00    -0.346 OA
HETATM   14  C   UNL     1      14.057  -8.044 -17.992  1.00  0.00     0.069 A 
HETATM   15  O   UNL     1      13.541  -9.559 -19.718  1.00  0.00    -0.346 OA
HETATM   16  C   UNL     1      14.171 -10.461 -20.636  1.00  0.00     0.202 C 
HETATM   17  C   UNL     1      14.924 -11.535 -19.870  1.00  0.00     0.202 C 
ENDBRANCH   6   8
ENDBRANCH   3   4
BRANCH   3  18
HETATM   18  N   UNL     1      13.820  -2.953 -16.242  1.00  0.00    -0.243 N 
HETATM   19  C   UNL     1      13.613  -1.734 -15.615  1.00  0.00     0.262 A 
HETATM   20  O   UNL     1      14.008  -1.439 -14.489  1.00  0.00    -0.267 OA
HETATM   21  C   UNL     1      12.917  -0.706 -16.415  1.00  0.00     0.078 A 
HETATM   22  C   UNL     1      12.482  -0.969 -17.648  1.00  0.00     0.037 A 
HETATM   23  C   UNL     1      12.693  -2.342 -18.159  1.00  0.00     0.058 A 
HETATM   24  N   UNL     1      13.336  -3.255 -17.498  1.00  0.00    -0.294 N 
HETATM   25  HN  UNL     1      13.481  -4.181 -17.901  1.00  0.00     0.187 HD
BRANCH  23  26
HETATM   26  C   UNL     1      12.180  -2.663 -19.526  1.00  0.00    -0.008 A 
HETATM   27  C   UNL     1      10.796  -2.621 -19.755  1.00  0.00     0.014 A 
HETATM   28  C   UNL     1      10.279  -2.938 -21.014  1.00  0.00     0.001 A 
HETATM   29  C   UNL     1      11.138  -3.293 -22.051  1.00  0.00     0.000 A 
HETATM   30  C   UNL     1      12.516  -3.315 -21.838  1.00  0.00     0.001 A 
HETATM   31  C   UNL     1      13.038  -2.994 -20.582  1.00  0.00     0.014 A 
ENDBRANCH  23  26
ENDBRANCH   3  18
ENDBRANCH   2   3
TORSDOF 5
ENDMDL
MODEL 6
REMARK VINA RESULT:      -6.9     11.160     14.129
REMARK  5 active torsions:
REMARK  status: ('A' for Active; 'I' for Inactive)
REMARK    1  A    between atoms: C_2  and  C_3 
REMARK    2  A    between atoms: C_3  and  C_4 
REMARK    3  A    between atoms: C_3  and  N_17 
REMARK       I    between atoms: C_4  and  N_6 
REMARK    4  A    between atoms: N_6  and  C_7 
REMARK    5  A    between atoms: C_22  and  C_23 
ROOT
HETATM    1  C   UNL     1      15.973  -3.267 -14.658  1.00  0.00     0.007 C 
HETATM    2  C   UNL     1      15.720  -3.624 -16.118  1.00  0.00     0.032 C 
ENDROOT
BRANCH   2   3
HETATM    3  C   UNL     1      15.853  -2.443 -17.100  1.00  0.00     0.203 C 
BRANCH   3   4
HETATM    4  C   UNL     1      16.943  -2.696 -18.171  1.00  0.00     0.247 C 
HETATM    5  O   UNL     1      17.190  -3.828 -18.589  1.00  0.00    -0.271 OA
HETATM    6  N   UNL     1      17.696  -1.588 -18.514  1.00  0.00    -0.325 N 
HETATM    7  HN  UNL     1      17.586  -0.772 -17.924  1.00  0.00     0.169 HD
BRANCH   6   8
HETATM    8  C   UNL     1      18.652  -1.548 -19.537  1.00  0.00     0.037 A 
HETATM    9  C   UNL     1      18.305  -1.254 -20.861  1.00  0.00     0.032 A 
HETATM   10  C   UNL     1      19.291  -1.185 -21.847  1.00  0.00     0.042 A 
HETATM   11  C   UNL     1      20.616  -1.454 -21.518  1.00  0.00     0.102 A 
HETATM   12  C   UNL     1      20.955  -1.796 -20.204  1.00  0.00     0.104 A 
HETATM   13  O   UNL     1      21.532  -1.375 -22.535  1.00  0.00    -0.346 OA
HETATM   14  C   UNL     1      19.986  -1.785 -19.202  1.00  0.00     0.069 A 
HETATM   15  O   UNL     1      22.223  -2.166 -19.830  1.00  0.00    -0.346 OA
HETATM   16  C   UNL     1      23.021  -2.484 -20.978  1.00  0.00     0.202 C 
HETATM   17  C   UNL     1      22.873  -1.397 -22.028  1.00  0.00     0.202 C 
ENDBRANCH   6   8
ENDBRANCH   3   4
BRANCH   3  18
HETATM   18  N   UNL     1      14.543  -2.136 -17.719  1.00  0.00    -0.243 N 
HETATM   19  C   UNL     1      13.633  -1.319 -17.066  1.00  0.00     0.262 A 
HETATM   20  O   UNL     1      13.792  -0.829 -15.950  1.00  0.00    -0.267 OA
HETATM   21  C   UNL     1      12.412  -0.976 -17.823  1.00  0.00     0.078 A 
HETATM   22  C   UNL     1      12.197  -1.468 -19.045  1.00  0.00     0.037 A 
HETATM   23  C   UNL     1      13.212  -2.400 -19.584  1.00  0.00     0.058 A 
HETATM   24  N   UNL     1      14.313  -2.690 -18.962  1.00  0.00    -0.294 N 
HETATM   25  HN  UNL     1      14.997  -3.316 -19.385  1.00  0.00     0.187 HD
BRANCH  23  26
HETATM   26  C   UNL     1      12.968  -2.987 -20.937  1.00  0.00    -0.008 A 
HETATM   27  C   UNL     1      14.045  -3.568 -21.625  1.00  0.00     0.014 A 
HETATM   28  C   UNL     1      13.860  -4.105 -22.902  1.00  0.00     0.001 A 
HETATM   29  C   UNL     1      12.601  -4.071 -23.497  1.00  0.00     0.000 A 
HETATM   30  C   UNL     1      11.522  -3.517 -22.811  1.00  0.00     0.001 A 
HETATM   31  C   UNL     1      11.701  -2.983 -21.532  1.00  0.00     0.014 A 
ENDBRANCH  23  26
ENDBRANCH   3  18
ENDBRANCH   2   3
TORSDOF 5
ENDMDL
MODEL 7
REMARK VINA RESULT:      -6.9      8.058      9.830
REMARK  5 active torsions:
REMARK  status: ('A' for Active; 'I' for Inactive)
REMARK    1  A    between atoms: C_2  and  C_3 
REMARK    2  A    between atoms: C_3  and  C_4 
REMARK    3  A    between atoms: C_3  and  N_17 
REMARK       I    between atoms: C_4  and  N_6 
REMARK    4  A    between atoms: N_6  and  C_7 
REMARK    5  A    between atoms: C_22  and  C_23 
ROOT
HETATM    1  C   UNL     1      14.807  -7.584 -16.189  1.00  0.00     0.007 C 
HETATM    2  C   UNL     1      14.068  -8.464 -17.192  1.00  0.00     0.032 C 
ENDROOT
BRANCH   2   3
HETATM    3  C   UNL     1      14.981  -9.347 -18.066  1.00  0.00     0.203 C 
BRANCH   3   4
HETATM    4  C   UNL     1      14.175 -10.373 -18.899  1.00  0.00     0.247 C 
HETATM    5  O   UNL     1      13.072 -10.781 -18.533  1.00  0.00    -0.271 OA
HETATM    6  N   UNL     1      14.840 -10.889 -19.996  1.00  0.00    -0.325 N 
HETATM    7  HN  UNL     1      15.831 -10.686 -20.055  1.00  0.00     0.169 HD
BRANCH   6   8
HETATM    8  C   UNL     1      14.275 -11.737 -20.957  1.00  0.00     0.037 A 
HETATM    9  C   UNL     1      13.481 -11.246 -22.000  1.00  0.00     0.032 A 
HETATM   10  C   UNL     1      12.966 -12.116 -22.961  1.00  0.00     0.042 A 
HETATM   11  C   UNL     1      13.206 -13.483 -22.854  1.00  0.00     0.102 A 
HETATM   12  C   UNL     1      13.958 -13.979 -21.783  1.00  0.00     0.104 A 
HETATM   13  O   UNL     1      12.666 -14.283 -23.828  1.00  0.00    -0.346 OA
HETATM   14  C   UNL     1      14.542 -13.104 -20.869  1.00  0.00     0.069 A 
HETATM   15  O   UNL     1      14.153 -15.320 -21.563  1.00  0.00    -0.346 OA
HETATM   16  C   UNL     1      13.230 -16.103 -22.331  1.00  0.00     0.202 C 
HETATM   17  C   UNL     1      13.205 -15.609 -23.767  1.00  0.00     0.202 C 
ENDBRANCH   6   8
ENDBRANCH   3   4
BRANCH   3  18
HETATM   18  N   UNL     1      15.843  -8.503 -18.926  1.00  0.00    -0.243 N 
HETATM   19  C   UNL     1      17.220  -8.671 -18.921  1.00  0.00     0.262 A 
HETATM   20  O   UNL     1      17.835  -9.462 -18.209  1.00  0.00    -0.267 OA
HETATM   21  C   UNL     1      17.973  -7.869 -19.905  1.00  0.00     0.078 A 
HETATM   22  C   UNL     1      17.352  -7.007 -20.713  1.00  0.00     0.037 A 
HETATM   23  C   UNL     1      15.888  -6.865 -20.549  1.00  0.00     0.058 A 
HETATM   24  N   UNL     1      15.192  -7.583 -19.723  1.00  0.00    -0.294 N 
HETATM   25  HN  UNL     1      14.181  -7.470 -19.663  1.00  0.00     0.187 HD
BRANCH  23  26
HETATM   26  C   UNL     1      15.183  -5.878 -21.422  1.00  0.00    -0.008 A 
HETATM   27  C   UNL     1      14.605  -6.328 -22.620  1.00  0.00     0.014 A 
HETATM   28  C   UNL     1      13.959  -5.429 -23.473  1.00  0.00     0.001 A 
HETATM   29  C   UNL     1      13.880  -4.080 -23.135  1.00  0.00     0.000 A 
HETATM   30  C   UNL     1      14.431  -3.630 -21.937  1.00  0.00     0.001 A 
HETATM   31  C   UNL     1      15.074  -4.525 -21.078  1.00  0.00     0.014 A 
ENDBRANCH  23  26
ENDBRANCH   3  18
ENDBRANCH   2   3
TORSDOF 5
ENDMDL
MODEL 8
REMARK VINA RESULT:      -6.8     10.870     12.158
REMARK  5 active torsions:
REMARK  status: ('A' for Active; 'I' for Inactive)
REMARK    1  A    between atoms: C_2  and  C_3 
REMARK    2  A    between atoms: C_3  and  C_4 
REMARK    3  A    between atoms: C_3  and  N_17 
REMARK       I    between atoms: C_4  and  N_6 
REMARK    4  A    between atoms: N_6  and  C_7 
REMARK    5  A    between atoms: C_22  and  C_23 
ROOT
HETATM    1  C   UNL     1      13.838  -5.911 -14.612  1.00  0.00     0.007 C 
HETATM    2  C   UNL     1      13.012  -5.912 -15.893  1.00  0.00     0.032 C 
ENDROOT
BRANCH   2   3
HETATM    3  C   UNL     1      13.773  -5.444 -17.149  1.00  0.00     0.203 C 
BRANCH   3   4
HETATM    4  C   UNL     1      14.039  -6.606 -18.136  1.00  0.00     0.247 C 
HETATM    5  O   UNL     1      14.342  -6.401 -19.312  1.00  0.00    -0.271 OA
HETATM    6  N   UNL     1      13.781  -7.869 -17.637  1.00  0.00    -0.325 N 
HETATM    7  HN  UNL     1      13.288  -7.910 -16.753  1.00  0.00     0.169 HD
BRANCH   6   8
HETATM    8  C   UNL     1      14.057  -9.072 -18.302  1.00  0.00     0.037 A 
HETATM    9  C   UNL     1      15.366  -9.534 -18.478  1.00  0.00     0.032 A 
HETATM   10  C   UNL     1      15.601 -10.755 -19.111  1.00  0.00     0.042 A 
HETATM   11  C   UNL     1      14.530 -11.492 -19.609  1.00  0.00     0.102 A 
HETATM   12  C   UNL     1      13.225 -11.005 -19.476  1.00  0.00     0.104 A 
HETATM   13  O   UNL     1      14.831 -12.679 -20.225  1.00  0.00    -0.346 OA
HETATM   14  C   UNL     1      12.982  -9.827 -18.772  1.00  0.00     0.069 A 
HETATM   15  O   UNL     1      12.133 -11.630 -20.026  1.00  0.00    -0.346 OA
HETATM   16  C   UNL     1      12.538 -12.598 -21.003  1.00  0.00     0.202 C 
HETATM   17  C   UNL     1      13.652 -13.464 -20.442  1.00  0.00     0.202 C 
ENDBRANCH   6   8
ENDBRANCH   3   4
BRANCH   3  18
HETATM   18  N   UNL     1      13.052  -4.327 -17.803  1.00  0.00    -0.243 N 
HETATM   19  C   UNL     1      13.393  -3.012 -17.524  1.00  0.00     0.262 A 
HETATM   20  O   UNL     1      14.250  -2.657 -16.719  1.00  0.00    -0.267 OA
HETATM   21  C   UNL     1      12.699  -1.981 -18.322  1.00  0.00     0.078 A 
HETATM   22  C   UNL     1      11.771  -2.313 -19.221  1.00  0.00     0.037 A 
HETATM   23  C   UNL     1      11.443  -3.751 -19.352  1.00  0.00     0.058 A 
HETATM   24  N   UNL     1      12.062  -4.683 -18.696  1.00  0.00    -0.294 N 
HETATM   25  HN  UNL     1      11.821  -5.664 -18.838  1.00  0.00     0.187 HD
BRANCH  23  26
HETATM   26  C   UNL     1      10.381  -4.136 -20.331  1.00  0.00    -0.008 A 
HETATM   27  C   UNL     1       9.608  -3.124 -20.921  1.00  0.00     0.014 A 
HETATM   28  C   UNL     1       8.590  -3.449 -21.822  1.00  0.00     0.001 A 
HETATM   29  C   UNL     1       8.341  -4.781 -22.142  1.00  0.00     0.000 A 
HETATM   30  C   UNL     1       9.119  -5.790 -21.577  1.00  0.00     0.001 A 
HETATM   31  C   UNL     1      10.141  -5.471 -20.679  1.00  0.00     0.014 A 
ENDBRANCH  23  26
ENDBRANCH   3  18
ENDBRANCH   2   3
TORSDOF 5
ENDMDL
MODEL 9
REMARK VINA RESULT:      -6.8     11.547     13.917
REMARK  5 active torsions:
REMARK  status: ('A' for Active; 'I' for Inactive)
REMARK    1  A    between atoms: C_2  and  C_3 
REMARK    2  A    between atoms: C_3  and  C_4 
REMARK    3  A    between atoms: C_3  and  N_17 
REMARK       I    between atoms: C_4  and  N_6 
REMARK    4  A    between atoms: N_6  and  C_7 
REMARK    5  A    between atoms: C_22  and  C_23 
ROOT
HETATM    1  C   UNL     1      15.340   1.267 -16.853  1.00  0.00     0.007 C 
HETATM    2  C   UNL     1      15.323   0.183 -17.924  1.00  0.00     0.032 C 
ENDROOT
BRANCH   2   3
HETATM    3  C   UNL     1      15.554  -1.247 -17.394  1.00  0.00     0.203 C 
BRANCH   3   4
HETATM    4  C   UNL     1      14.736  -2.299 -18.182  1.00  0.00     0.247 C 
HETATM    5  O   UNL     1      14.675  -3.475 -17.821  1.00  0.00    -0.271 OA
HETATM    6  N   UNL     1      14.202  -1.852 -19.376  1.00  0.00    -0.325 N 
HETATM    7  HN  UNL     1      14.531  -0.952 -19.705  1.00  0.00     0.169 HD
BRANCH   6   8
HETATM    8  C   UNL     1      13.335  -2.585 -20.197  1.00  0.00     0.037 A 
HETATM    9  C   UNL     1      13.806  -3.359 -21.264  1.00  0.00     0.032 A 
HETATM   10  C   UNL     1      12.916  -4.106 -22.037  1.00  0.00     0.042 A 
HETATM   11  C   UNL     1      11.552  -4.044 -21.772  1.00  0.00     0.102 A 
HETATM   12  C   UNL     1      11.077  -3.232 -20.736  1.00  0.00     0.104 A 
HETATM   13  O   UNL     1      10.732  -4.798 -22.572  1.00  0.00    -0.346 OA
HETATM   14  C   UNL     1      11.969  -2.550 -19.911  1.00  0.00     0.069 A 
HETATM   15  O   UNL     1       9.740  -3.049 -20.480  1.00  0.00    -0.346 OA
HETATM   16  C   UNL     1       8.944  -3.494 -21.586  1.00  0.00     0.202 C 
HETATM   17  C   UNL     1       9.405  -4.869 -22.035  1.00  0.00     0.202 C 
ENDBRANCH   6   8
ENDBRANCH   3   4
BRANCH   3  18
HETATM   18  N   UNL     1      17.000  -1.569 -17.393  1.00  0.00    -0.243 N 
HETATM   19  C   UNL     1      17.628  -1.972 -16.224  1.00  0.00     0.262 A 
HETATM   20  O   UNL     1      17.090  -2.056 -15.122  1.00  0.00    -0.267 OA
HETATM   21  C   UNL     1      19.038  -2.389 -16.359  1.00  0.00     0.078 A 
HETATM   22  C   UNL     1      19.665  -2.332 -17.535  1.00  0.00     0.037 A 
HETATM   23  C   UNL     1      18.898  -1.797 -18.682  1.00  0.00     0.058 A 
HETATM   24  N   UNL     1      17.647  -1.461 -18.606  1.00  0.00    -0.294 N 
HETATM   25  HN  UNL     1      17.151  -1.122 -19.430  1.00  0.00     0.187 HD
BRANCH  23  26
HETATM   26  C   UNL     1      19.597  -1.695 -20.000  1.00  0.00    -0.008 A 
HETATM   27  C   UNL     1      20.868  -2.274 -20.136  1.00  0.00     0.014 A 
HETATM   28  C   UNL     1      21.562  -2.177 -21.346  1.00  0.00     0.001 A 
HETATM   29  C   UNL     1      20.991  -1.507 -22.425  1.00  0.00     0.000 A 
HETATM   30  C   UNL     1      19.719  -0.949 -22.304  1.00  0.00     0.001 A 
HETATM   31  C   UNL     1      19.019  -1.047 -21.099  1.00  0.00     0.014 A 
ENDBRANCH  23  26
ENDBRANCH   3  18
ENDBRANCH   2   3
TORSDOF 5
ENDMDL
