MODEL 1
REMARK VINA RESULT:      -8.5      0.000      0.000
REMARK  7 active torsions:
REMARK  status: ('A' for Active; 'I' for Inactive)
REMARK    1  A    between atoms: C_2  and  C_5 
REMARK    2  A    between atoms: C_5  and  C_7 
REMARK    3  A    between atoms: C_7  and  O_8 
REMARK    4  A    between atoms: O_8  and  C_9 
REMARK    5  A    between atoms: C_9  and  C_11 
REMARK    6  A    between atoms: C_13  and  C_14 
REMARK    7  A    between atoms: C_18  and  N_20 
ROOT
HETATM    1  C   UNL     1      24.653   1.982 -24.557  1.00  0.00     0.022 C 
HETATM    2  C   UNL     1      24.551   3.429 -25.075  1.00  0.00     0.012 C 
HETATM    3  C   UNL     1      25.963   4.027 -25.135  1.00  0.00     0.022 C 
HETATM    4  C   UNL     1      23.931   3.400 -26.477  1.00  0.00     0.022 C 
ENDROOT
BRANCH   2   5
HETATM    5  C   UNL     1      23.670   4.263 -24.116  1.00  0.00     0.158 C 
HETATM    6  O   UNL     1      22.995   5.211 -24.528  1.00  0.00    -0.295 OA
BRANCH   5   7
HETATM    7  C   UNL     1      23.660   3.866 -22.635  1.00  0.00     0.258 C 
BRANCH   7   8
HETATM    8  O   UNL     1      22.331   3.573 -22.191  1.00  0.00    -0.310 OA
BRANCH   8   9
HETATM    9  C   UNL     1      22.195   3.181 -20.903  1.00  0.00     0.294 C 
HETATM   10  O   UNL     1      22.830   3.606 -19.954  1.00  0.00    -0.259 OA
BRANCH   9  11
HETATM   11  C   UNL     1      21.159   2.119 -20.824  1.00  0.00     0.054 A 
HETATM   12  C   UNL     1      19.926   2.448 -20.255  1.00  0.00     0.049 A 
HETATM   13  C   UNL     1      18.930   1.482 -20.195  1.00  0.00     0.044 A 
HETATM   14  N   UNL     1      19.146   0.224 -20.635  1.00  0.00    -0.355 N 
HETATM   15  C   UNL     1      20.328  -0.096 -21.193  1.00  0.00     0.043 A 
HETATM   16  HN  UNL     1      18.416  -0.482 -20.544  1.00  0.00     0.166 HD
HETATM   17  C   UNL     1      20.494  -1.386 -21.679  1.00  0.00     0.030 A 
HETATM   18  C   UNL     1      21.398   0.816 -21.315  1.00  0.00     0.007 A 
HETATM   19  C   UNL     1      21.679  -1.814 -22.286  1.00  0.00     0.002 A 
HETATM   20  C   UNL     1      22.739  -0.933 -22.406  1.00  0.00     0.001 A 
HETATM   21  C   UNL     1      22.600   0.369 -21.926  1.00  0.00     0.015 A 
BRANCH  13  22
HETATM   22  C   UNL     1      17.567   1.781 -19.702  1.00  0.00    -0.007 A 
HETATM   23  C   UNL     1      16.893   2.951 -20.057  1.00  0.00     0.014 A 
HETATM   24  C   UNL     1      15.606   3.200 -19.579  1.00  0.00     0.003 A 
HETATM   25  C   UNL     1      14.976   2.294 -18.711  1.00  0.00     0.030 A 
HETATM   26  C   UNL     1      15.621   1.128 -18.284  1.00  0.00     0.046 A 
HETATM   27  C   UNL     1      16.905   0.897 -18.819  1.00  0.00     0.044 A 
BRANCH  26  28
HETATM   28  N   UNL     1      15.009   0.194 -17.373  1.00  0.00    -0.252 N 
HETATM   29  C   UNL     1      14.956   0.332 -15.993  1.00  0.00     0.236 C 
HETATM   30  O   UNL     1      15.528   1.143 -15.277  1.00  0.00    -0.272 OA
HETATM   31  C   UNL     1      14.072  -0.758 -15.410  1.00  0.00     0.096 C 
HETATM   32  C   UNL     1      14.756  -1.662 -14.358  1.00  0.00    -0.000 C 
HETATM   33  C   UNL     1      13.862  -1.694 -16.584  1.00  0.00     0.096 C 
HETATM   34  C   UNL     1      13.811  -2.795 -13.886  1.00  0.00     0.006 C 
HETATM   35  C   UNL     1      15.706  -2.481 -15.230  1.00  0.00     0.011 C 
HETATM   36  C   UNL     1      13.621  -3.655 -15.147  1.00  0.00     0.006 C 
HETATM   37  C   UNL     1      14.579  -2.982 -16.144  1.00  0.00    -0.000 C 
HETATM   38  C   UNL     1      14.487  -1.024 -17.760  1.00  0.00     0.236 C 
HETATM   39  O   UNL     1      14.487  -1.575 -18.853  1.00  0.00    -0.272 OA
ENDBRANCH  26  28
ENDBRANCH  13  22
ENDBRANCH   9  11
ENDBRANCH   8   9
ENDBRANCH   7   8
ENDBRANCH   5   7
ENDBRANCH   2   5
TORSDOF 7
ENDMDL
MODEL 2
REMARK VINA RESULT:      -8.4      2.340      4.348
REMARK  7 active torsions:
REMARK  status: ('A' for Active; 'I' for Inactive)
REMARK    1  A    between atoms: C_2  and  C_5 
REMARK    2  A    between atoms: C_5  and  C_7 
REMARK    3  A    between atoms: C_7  and  O_8 
REMARK    4  A    between atoms: O_8  and  C_9 
REMARK    5  A    between atoms: C_9  and  C_11 
REMARK    6  A    between atoms: C_13  and  C_14 
REMARK    7  A    between atoms: C_18  and  N_20 
ROOT
HETATM    1  C   UNL     1      22.584  -0.454 -16.234  1.00  0.00     0.022 C 
HETATM    2  C   UNL     1      22.197  -0.131 -17.690  1.00  0.00     0.012 C 
HETATM    3  C   UNL     1      21.327   1.133 -17.694  1.00  0.00     0.022 C 
HETATM    4  C   UNL     1      23.482   0.112 -18.491  1.00  0.00     0.022 C 
ENDROOT
BRANCH   2   5
HETATM    5  C   UNL     1      21.405  -1.315 -18.292  1.00  0.00     0.158 C 
HETATM    6  O   UNL     1      20.417  -1.781 -17.718  1.00  0.00    -0.295 OA
BRANCH   5   7
HETATM    7  C   UNL     1      21.890  -1.885 -19.630  1.00  0.00     0.258 C 
BRANCH   7   8
HETATM    8  O   UNL     1      20.799  -2.051 -20.542  1.00  0.00    -0.310 OA
BRANCH   8   9
HETATM    9  C   UNL     1      20.823  -1.289 -21.660  1.00  0.00     0.294 C 
HETATM   10  O   UNL     1      21.129  -1.665 -22.777  1.00  0.00    -0.259 OA
BRANCH   9  11
HETATM   11  C   UNL     1      20.441   0.104 -21.308  1.00  0.00     0.054 A 
HETATM   12  C   UNL     1      19.139   0.331 -20.853  1.00  0.00     0.049 A 
HETATM   13  C   UNL     1      18.765   1.618 -20.490  1.00  0.00     0.044 A 
HETATM   14  N   UNL     1      19.620   2.656 -20.609  1.00  0.00    -0.355 N 
HETATM   15  C   UNL     1      20.877   2.442 -21.036  1.00  0.00     0.043 A 
HETATM   16  HN  UNL     1      19.312   3.600 -20.376  1.00  0.00     0.166 HD
HETATM   17  C   UNL     1      21.741   3.528 -21.098  1.00  0.00     0.030 A 
HETATM   18  C   UNL     1      21.360   1.171 -21.415  1.00  0.00     0.007 A 
HETATM   19  C   UNL     1      23.069   3.408 -21.518  1.00  0.00     0.002 A 
HETATM   20  C   UNL     1      23.555   2.169 -21.899  1.00  0.00     0.001 A 
HETATM   21  C   UNL     1      22.709   1.062 -21.848  1.00  0.00     0.015 A 
BRANCH  13  22
HETATM   22  C   UNL     1      17.441   1.921 -19.904  1.00  0.00    -0.007 A 
HETATM   23  C   UNL     1      16.755   3.102 -20.196  1.00  0.00     0.014 A 
HETATM   24  C   UNL     1      15.505   3.353 -19.630  1.00  0.00     0.003 A 
HETATM   25  C   UNL     1      14.926   2.440 -18.735  1.00  0.00     0.030 A 
HETATM   26  C   UNL     1      15.588   1.263 -18.368  1.00  0.00     0.046 A 
HETATM   27  C   UNL     1      16.831   1.029 -18.991  1.00  0.00     0.044 A 
BRANCH  26  28
HETATM   28  N   UNL     1      15.029   0.320 -17.432  1.00  0.00    -0.252 N 
HETATM   29  C   UNL     1      15.022   0.465 -16.052  1.00  0.00     0.236 C 
HETATM   30  O   UNL     1      15.601   1.293 -15.360  1.00  0.00    -0.272 OA
HETATM   31  C   UNL     1      14.184  -0.641 -15.432  1.00  0.00     0.096 C 
HETATM   32  C   UNL     1      14.925  -1.524 -14.401  1.00  0.00    -0.000 C 
HETATM   33  C   UNL     1      13.953  -1.588 -16.593  1.00  0.00     0.096 C 
HETATM   34  C   UNL     1      14.023  -2.675 -13.890  1.00  0.00     0.006 C 
HETATM   35  C   UNL     1      15.861  -2.326 -15.302  1.00  0.00     0.011 C 
HETATM   36  C   UNL     1      13.806  -3.545 -15.140  1.00  0.00     0.006 C 
HETATM   37  C   UNL     1      14.713  -2.858 -16.173  1.00  0.00    -0.000 C 
HETATM   38  C   UNL     1      14.521  -0.910 -17.794  1.00  0.00     0.236 C 
HETATM   39  O   UNL     1      14.494  -1.468 -18.884  1.00  0.00    -0.272 OA
ENDBRANCH  26  28
ENDBRANCH  13  22
ENDBRANCH   9  11
ENDBRANCH   8   9
ENDBRANCH   7   8
ENDBRANCH   5   7
ENDBRANCH   2   5
TORSDOF 7
ENDMDL
MODEL 3
REMARK VINA RESULT:      -8.4      6.380      9.598
REMARK  7 active torsions:
REMARK  status: ('A' for Active; 'I' for Inactive)
REMARK    1  A    between atoms: C_2  and  C_5 
REMARK    2  A    between atoms: C_5  and  C_7 
REMARK    3  A    between atoms: C_7  and  O_8 
REMARK    4  A    between atoms: O_8  and  C_9 
REMARK    5  A    between atoms: C_9  and  C_11 
REMARK    6  A    between atoms: C_13  and  C_14 
REMARK    7  A    between atoms: C_18  and  N_20 
ROOT
HETATM    1  C   UNL     1      14.996  -4.898 -16.577  1.00  0.00     0.022 C 
HETATM    2  C   UNL     1      14.016  -6.080 -16.443  1.00  0.00     0.012 C 
HETATM    3  C   UNL     1      13.769  -6.342 -14.951  1.00  0.00     0.022 C 
HETATM    4  C   UNL     1      12.702  -5.702 -17.137  1.00  0.00     0.022 C 
ENDROOT
BRANCH   2   5
HETATM    5  C   UNL     1      14.628  -7.338 -17.102  1.00  0.00     0.158 C 
HETATM    6  O   UNL     1      14.229  -8.469 -16.813  1.00  0.00    -0.295 OA
BRANCH   5   7
HETATM    7  C   UNL     1      15.745  -7.128 -18.131  1.00  0.00     0.258 C 
BRANCH   7   8
HETATM    8  O   UNL     1      15.226  -7.159 -19.465  1.00  0.00    -0.310 OA
BRANCH   8   9
HETATM    9  C   UNL     1      15.851  -6.379 -20.376  1.00  0.00     0.294 C 
HETATM   10  O   UNL     1      17.026  -6.445 -20.690  1.00  0.00    -0.259 OA
BRANCH   9  11
HETATM   11  C   UNL     1      14.880  -5.397 -20.925  1.00  0.00     0.054 A 
HETATM   12  C   UNL     1      14.406  -4.397 -20.071  1.00  0.00     0.049 A 
HETATM   13  C   UNL     1      13.520  -3.450 -20.566  1.00  0.00     0.044 A 
HETATM   14  N   UNL     1      13.078  -3.502 -21.840  1.00  0.00    -0.355 N 
HETATM   15  C   UNL     1      13.538  -4.455 -22.670  1.00  0.00     0.043 A 
HETATM   16  HN  UNL     1      12.395  -2.821 -22.172  1.00  0.00     0.166 HD
HETATM   17  C   UNL     1      13.096  -4.445 -23.987  1.00  0.00     0.030 A 
HETATM   18  C   UNL     1      14.451  -5.454 -22.270  1.00  0.00     0.007 A 
HETATM   19  C   UNL     1      13.524  -5.386 -24.929  1.00  0.00     0.002 A 
HETATM   20  C   UNL     1      14.413  -6.376 -24.549  1.00  0.00     0.001 A 
HETATM   21  C   UNL     1      14.872  -6.410 -23.233  1.00  0.00     0.015 A 
BRANCH  13  22
HETATM   22  C   UNL     1      13.054  -2.303 -19.754  1.00  0.00    -0.007 A 
HETATM   23  C   UNL     1      11.774  -1.764 -19.903  1.00  0.00     0.014 A 
HETATM   24  C   UNL     1      11.365  -0.686 -19.117  1.00  0.00     0.003 A 
HETATM   25  C   UNL     1      12.239  -0.105 -18.185  1.00  0.00     0.030 A 
HETATM   26  C   UNL     1      13.548  -0.573 -18.026  1.00  0.00     0.046 A 
HETATM   27  C   UNL     1      13.909  -1.686 -18.813  1.00  0.00     0.044 A 
BRANCH  26  28
HETATM   28  N   UNL     1      14.475   0.021 -17.096  1.00  0.00    -0.252 N 
HETATM   29  C   UNL     1      15.440   0.966 -17.414  1.00  0.00     0.236 C 
HETATM   30  O   UNL     1      15.805   1.356 -18.516  1.00  0.00    -0.272 OA
HETATM   31  C   UNL     1      16.087   1.477 -16.137  1.00  0.00     0.096 C 
HETATM   32  C   UNL     1      17.622   1.299 -16.065  1.00  0.00    -0.000 C 
HETATM   33  C   UNL     1      15.579   0.510 -15.085  1.00  0.00     0.096 C 
HETATM   34  C   UNL     1      18.181   1.764 -14.698  1.00  0.00     0.006 C 
HETATM   35  C   UNL     1      17.746  -0.212 -15.882  1.00  0.00     0.011 C 
HETATM   36  C   UNL     1      17.575   0.761 -13.700  1.00  0.00     0.006 C 
HETATM   37  C   UNL     1      16.853  -0.224 -14.633  1.00  0.00    -0.000 C 
HETATM   38  C   UNL     1      14.588  -0.364 -15.776  1.00  0.00     0.236 C 
HETATM   39  O   UNL     1      14.030  -1.265 -15.162  1.00  0.00    -0.272 OA
ENDBRANCH  26  28
ENDBRANCH  13  22
ENDBRANCH   9  11
ENDBRANCH   8   9
ENDBRANCH   7   8
ENDBRANCH   5   7
ENDBRANCH   2   5
TORSDOF 7
ENDMDL
MODEL 4
REMARK VINA RESULT:      -8.3      8.339     11.760
REMARK  7 active torsions:
REMARK  status: ('A' for Active; 'I' for Inactive)
REMARK    1  A    between atoms: C_2  and  C_5 
REMARK    2  A    between atoms: C_5  and  C_7 
REMARK    3  A    between atoms: C_7  and  O_8 
REMARK    4  A    between atoms: O_8  and  C_9 
REMARK    5  A    between atoms: C_9  and  C_11 
REMARK    6  A    between atoms: C_13  and  C_14 
REMARK    7  A    between atoms: C_18  and  N_20 
ROOT
HETATM    1  C   UNL     1      14.119  -3.776 -22.383  1.00  0.00     0.022 C 
HETATM    2  C   UNL     1      13.497  -4.935 -23.186  1.00  0.00     0.012 C 
HETATM    3  C   UNL     1      13.800  -4.715 -24.674  1.00  0.00     0.022 C 
HETATM    4  C   UNL     1      14.126  -6.249 -22.708  1.00  0.00     0.022 C 
ENDROOT
BRANCH   2   5
HETATM    5  C   UNL     1      11.967  -4.959 -22.960  1.00  0.00     0.158 C 
HETATM    6  O   UNL     1      11.383  -6.001 -22.650  1.00  0.00    -0.295 OA
BRANCH   5   7
HETATM    7  C   UNL     1      11.204  -3.641 -23.132  1.00  0.00     0.258 C 
BRANCH   7   8
HETATM    8  O   UNL     1      11.269  -2.851 -21.940  1.00  0.00    -0.310 OA
BRANCH   8   9
HETATM    9  C   UNL     1      10.552  -3.292 -20.881  1.00  0.00     0.294 C 
HETATM   10  O   UNL     1       9.355  -3.513 -20.868  1.00  0.00    -0.259 OA
BRANCH   9  11
HETATM   11  C   UNL     1      11.455  -3.441 -19.709  1.00  0.00     0.054 A 
HETATM   12  C   UNL     1      11.888  -4.728 -19.376  1.00  0.00     0.049 A 
HETATM   13  C   UNL     1      12.756  -4.892 -18.304  1.00  0.00     0.044 A 
HETATM   14  N   UNL     1      13.152  -3.841 -17.556  1.00  0.00    -0.355 N 
HETATM   15  C   UNL     1      12.747  -2.599 -17.878  1.00  0.00     0.043 A 
HETATM   16  HN  UNL     1      13.756  -3.988 -16.747  1.00  0.00     0.166 HD
HETATM   17  C   UNL     1      13.216  -1.539 -17.113  1.00  0.00     0.030 A 
HETATM   18  C   UNL     1      11.879  -2.324 -18.956  1.00  0.00     0.007 A 
HETATM   19  C   UNL     1      12.863  -0.211 -17.374  1.00  0.00     0.002 A 
HETATM   20  C   UNL     1      12.007   0.073 -18.423  1.00  0.00     0.001 A 
HETATM   21  C   UNL     1      11.520  -0.972 -19.207  1.00  0.00     0.015 A 
BRANCH  13  22
HETATM   22  C   UNL     1      13.338  -6.206 -17.953  1.00  0.00    -0.007 A 
HETATM   23  C   UNL     1      14.078  -6.398 -16.784  1.00  0.00     0.014 A 
HETATM   24  C   UNL     1      14.609  -7.652 -16.480  1.00  0.00     0.003 A 
HETATM   25  C   UNL     1      14.436  -8.735 -17.355  1.00  0.00     0.030 A 
HETATM   26  C   UNL     1      13.744  -8.591 -18.563  1.00  0.00     0.046 A 
HETATM   27  C   UNL     1      13.192  -7.317 -18.814  1.00  0.00     0.044 A 
BRANCH  26  28
HETATM   28  N   UNL     1      13.572  -9.679 -19.492  1.00  0.00    -0.252 N 
HETATM   29  C   UNL     1      12.415 -10.429 -19.649  1.00  0.00     0.236 C 
HETATM   30  O   UNL     1      11.404 -10.440 -18.959  1.00  0.00    -0.272 OA
HETATM   31  C   UNL     1      12.570 -11.353 -20.846  1.00  0.00     0.096 C 
HETATM   32  C   UNL     1      12.389 -12.858 -20.538  1.00  0.00    -0.000 C 
HETATM   33  C   UNL     1      14.046 -11.244 -21.175  1.00  0.00     0.096 C 
HETATM   34  C   UNL     1      12.650 -13.726 -21.794  1.00  0.00     0.006 C 
HETATM   35  C   UNL     1      13.664 -13.165 -19.755  1.00  0.00     0.011 C 
HETATM   36  C   UNL     1      14.148 -13.512 -22.075  1.00  0.00     0.006 C 
HETATM   37  C   UNL     1      14.582 -12.654 -20.875  1.00  0.00    -0.000 C 
HETATM   38  C   UNL     1      14.589 -10.185 -20.276  1.00  0.00     0.236 C 
HETATM   39  O   UNL     1      15.780  -9.902 -20.310  1.00  0.00    -0.272 OA
ENDBRANCH  26  28
ENDBRANCH  13  22
ENDBRANCH   9  11
ENDBRANCH   8   9
ENDBRANCH   7   8
ENDBRANCH   5   7
ENDBRANCH   2   5
TORSDOF 7
ENDMDL
MODEL 5
REMARK VINA RESULT:      -8.3      7.206     10.513
REMARK  7 active torsions:
REMARK  status: ('A' for Active; 'I' for Inactive)
REMARK    1  A    between atoms: C_2  and  C_5 
REMARK    2  A    between atoms: C_5  and  C_7 
REMARK    3  A    between atoms: C_7  and  O_8 
REMARK    4  A    between atoms: O_8  and  C_9 
REMARK    5  A    between atoms: C_9  and  C_11 
REMARK    6  A    between atoms: C_13  and  C_14 
REMARK    7  A    between atoms: C_18  and  N_20 
ROOT
HETATM    1  C   UNL     1      17.159  -8.524 -15.649  1.00  0.00     0.022 C 
HETATM    2  C   UNL     1      16.477  -7.225 -16.121  1.00  0.00     0.012 C 
HETATM    3  C   UNL     1      16.768  -7.037 -17.616  1.00  0.00     0.022 C 
HETATM    4  C   UNL     1      14.966  -7.359 -15.890  1.00  0.00     0.022 C 
ENDROOT
BRANCH   2   5
HETATM    5  C   UNL     1      17.037  -6.025 -15.323  1.00  0.00     0.158 C 
HETATM    6  O   UNL     1      18.142  -5.542 -15.585  1.00  0.00    -0.295 OA
BRANCH   5   7
HETATM    7  C   UNL     1      16.167  -5.454 -14.197  1.00  0.00     0.258 C 
BRANCH   7   8
HETATM    8  O   UNL     1      16.083  -4.028 -14.286  1.00  0.00    -0.310 OA
BRANCH   8   9
HETATM    9  C   UNL     1      14.881  -3.512 -14.630  1.00  0.00     0.294 C 
HETATM   10  O   UNL     1      13.852  -3.602 -13.984  1.00  0.00    -0.259 OA
BRANCH   9  11
HETATM   11  C   UNL     1      15.000  -2.834 -15.947  1.00  0.00     0.054 A 
HETATM   12  C   UNL     1      14.884  -3.618 -17.099  1.00  0.00     0.049 A 
HETATM   13  C   UNL     1      14.963  -3.005 -18.343  1.00  0.00     0.044 A 
HETATM   14  N   UNL     1      15.190  -1.680 -18.458  1.00  0.00    -0.355 N 
HETATM   15  C   UNL     1      15.291  -0.919 -17.354  1.00  0.00     0.043 A 
HETATM   16  HN  UNL     1      15.286  -1.256 -19.382  1.00  0.00     0.166 HD
HETATM   17  C   UNL     1      15.476   0.448 -17.515  1.00  0.00     0.030 A 
HETATM   18  C   UNL     1      15.210  -1.441 -16.045  1.00  0.00     0.007 A 
HETATM   19  C   UNL     1      15.581   1.325 -16.431  1.00  0.00     0.002 A 
HETATM   20  C   UNL     1      15.511   0.826 -15.142  1.00  0.00     0.001 A 
HETATM   21  C   UNL     1      15.327  -0.543 -14.951  1.00  0.00     0.015 A 
BRANCH  13  22
HETATM   22  C   UNL     1      14.749  -3.748 -19.605  1.00  0.00    -0.007 A 
HETATM   23  C   UNL     1      14.614  -3.096 -20.833  1.00  0.00     0.014 A 
HETATM   24  C   UNL     1      14.419  -3.828 -22.005  1.00  0.00     0.003 A 
HETATM   25  C   UNL     1      14.325  -5.228 -21.969  1.00  0.00     0.030 A 
HETATM   26  C   UNL     1      14.405  -5.932 -20.762  1.00  0.00     0.046 A 
HETATM   27  C   UNL     1      14.640  -5.158 -19.607  1.00  0.00     0.044 A 
BRANCH  26  28
HETATM   28  N   UNL     1      14.286  -7.366 -20.693  1.00  0.00    -0.252 N 
HETATM   29  C   UNL     1      13.138  -8.062 -20.342  1.00  0.00     0.236 C 
HETATM   30  O   UNL     1      12.087  -7.635 -19.881  1.00  0.00    -0.272 OA
HETATM   31  C   UNL     1      13.361  -9.549 -20.566  1.00  0.00     0.096 C 
HETATM   32  C   UNL     1      13.157 -10.436 -19.315  1.00  0.00    -0.000 C 
HETATM   33  C   UNL     1      14.855  -9.639 -20.811  1.00  0.00     0.096 C 
HETATM   34  C   UNL     1      13.491 -11.919 -19.614  1.00  0.00     0.006 C 
HETATM   35  C   UNL     1      14.382 -10.071 -18.479  1.00  0.00     0.011 C 
HETATM   36  C   UNL     1      15.003 -11.899 -19.897  1.00  0.00     0.006 C 
HETATM   37  C   UNL     1      15.367 -10.435 -19.599  1.00  0.00    -0.000 C 
HETATM   38  C   UNL     1      15.346  -8.232 -20.865  1.00  0.00     0.236 C 
HETATM   39  O   UNL     1      16.538  -8.004 -21.030  1.00  0.00    -0.272 OA
ENDBRANCH  26  28
ENDBRANCH  13  22
ENDBRANCH   9  11
ENDBRANCH   8   9
ENDBRANCH   7   8
ENDBRANCH   5   7
ENDBRANCH   2   5
TORSDOF 7
ENDMDL
MODEL 6
REMARK VINA RESULT:      -8.3      8.337     10.295
REMARK  7 active torsions:
REMARK  status: ('A' for Active; 'I' for Inactive)
REMARK    1  A    between atoms: C_2  and  C_5 
REMARK    2  A    between atoms: C_5  and  C_7 
REMARK    3  A    between atoms: C_7  and  O_8 
REMARK    4  A    between atoms: O_8  and  C_9 
REMARK    5  A    between atoms: C_9  and  C_11 
REMARK    6  A    between atoms: C_13  and  C_14 
REMARK    7  A    between atoms: C_18  and  N_20 
ROOT
HETATM    1  C   UNL     1      14.341  -8.707 -17.410  1.00  0.00     0.022 C 
HETATM    2  C   UNL     1      15.216  -8.457 -18.654  1.00  0.00     0.012 C 
HETATM    3  C   UNL     1      15.330  -6.943 -18.873  1.00  0.00     0.022 C 
HETATM    4  C   UNL     1      16.603  -9.059 -18.400  1.00  0.00     0.022 C 
ENDROOT
BRANCH   2   5
HETATM    5  C   UNL     1      14.562  -9.118 -19.889  1.00  0.00     0.158 C 
HETATM    6  O   UNL     1      13.347  -9.332 -19.933  1.00  0.00    -0.295 OA
BRANCH   5   7
HETATM    7  C   UNL     1      15.477  -9.494 -21.060  1.00  0.00     0.258 C 
BRANCH   7   8
HETATM    8  O   UNL     1      15.559  -8.427 -22.011  1.00  0.00    -0.310 OA
BRANCH   8   9
HETATM    9  C   UNL     1      14.728  -8.499 -23.076  1.00  0.00     0.294 C 
HETATM   10  O   UNL     1      14.436  -9.510 -23.690  1.00  0.00    -0.259 OA
BRANCH   9  11
HETATM   11  C   UNL     1      14.240  -7.135 -23.406  1.00  0.00     0.054 A 
HETATM   12  C   UNL     1      13.654  -6.384 -22.383  1.00  0.00     0.049 A 
HETATM   13  C   UNL     1      13.215  -5.095 -22.658  1.00  0.00     0.044 A 
HETATM   14  N   UNL     1      13.306  -4.573 -23.900  1.00  0.00    -0.355 N 
HETATM   15  C   UNL     1      13.878  -5.287 -24.886  1.00  0.00     0.043 A 
HETATM   16  HN  UNL     1      12.940  -3.640 -24.090  1.00  0.00     0.166 HD
HETATM   17  C   UNL     1      13.997  -4.697 -26.137  1.00  0.00     0.030 A 
HETATM   18  C   UNL     1      14.369  -6.598 -24.707  1.00  0.00     0.007 A 
HETATM   19  C   UNL     1      14.587  -5.351 -27.223  1.00  0.00     0.002 A 
HETATM   20  C   UNL     1      15.065  -6.640 -27.064  1.00  0.00     0.001 A 
HETATM   21  C   UNL     1      14.958  -7.257 -25.819  1.00  0.00     0.015 A 
BRANCH  13  22
HETATM   22  C   UNL     1      12.679  -4.202 -21.607  1.00  0.00    -0.007 A 
HETATM   23  C   UNL     1      11.789  -3.166 -21.900  1.00  0.00     0.014 A 
HETATM   24  C   UNL     1      11.298  -2.345 -20.884  1.00  0.00     0.003 A 
HETATM   25  C   UNL     1      11.711  -2.526 -19.554  1.00  0.00     0.030 A 
HETATM   26  C   UNL     1      12.637  -3.517 -19.208  1.00  0.00     0.046 A 
HETATM   27  C   UNL     1      13.079  -4.347 -20.259  1.00  0.00     0.044 A 
BRANCH  26  28
HETATM   28  N   UNL     1      13.097  -3.708 -17.856  1.00  0.00    -0.252 N 
HETATM   29  C   UNL     1      13.940  -2.849 -17.164  1.00  0.00     0.236 C 
HETATM   30  O   UNL     1      14.572  -1.886 -17.581  1.00  0.00    -0.272 OA
HETATM   31  C   UNL     1      14.042  -3.299 -15.716  1.00  0.00     0.096 C 
HETATM   32  C   UNL     1      15.477  -3.601 -15.224  1.00  0.00    -0.000 C 
HETATM   33  C   UNL     1      13.390  -4.668 -15.736  1.00  0.00     0.096 C 
HETATM   34  C   UNL     1      15.475  -4.136 -13.771  1.00  0.00     0.006 C 
HETATM   35  C   UNL     1      15.787  -4.900 -15.965  1.00  0.00     0.011 C 
HETATM   36  C   UNL     1      14.756  -5.491 -13.886  1.00  0.00     0.006 C 
HETATM   37  C   UNL     1      14.552  -5.620 -15.404  1.00  0.00    -0.000 C 
HETATM   38  C   UNL     1      12.839  -4.840 -17.111  1.00  0.00     0.236 C 
HETATM   39  O   UNL     1      12.272  -5.880 -17.420  1.00  0.00    -0.272 OA
ENDBRANCH  26  28
ENDBRANCH  13  22
ENDBRANCH   9  11
ENDBRANCH   8   9
ENDBRANCH   7   8
ENDBRANCH   5   7
ENDBRANCH   2   5
TORSDOF 7
ENDMDL
MODEL 7
REMARK VINA RESULT:      -8.3      7.699     11.099
REMARK  7 active torsions:
REMARK  status: ('A' for Active; 'I' for Inactive)
REMARK    1  A    between atoms: C_2  and  C_5 
REMARK    2  A    between atoms: C_5  and  C_7 
REMARK    3  A    between atoms: C_7  and  O_8 
REMARK    4  A    between atoms: O_8  and  C_9 
REMARK    5  A    between atoms: C_9  and  C_11 
REMARK    6  A    between atoms: C_13  and  C_14 
REMARK    7  A    between atoms: C_18  and  N_20 
ROOT
HETATM    1  C   UNL     1      17.122  -8.433 -16.050  1.00  0.00     0.022 C 
HETATM    2  C   UNL     1      16.328  -7.115 -16.138  1.00  0.00     0.012 C 
HETATM    3  C   UNL     1      16.286  -6.668 -17.606  1.00  0.00     0.022 C 
HETATM    4  C   UNL     1      14.905  -7.371 -15.624  1.00  0.00     0.022 C 
ENDROOT
BRANCH   2   5
HETATM    5  C   UNL     1      17.022  -6.033 -15.280  1.00  0.00     0.158 C 
HETATM    6  O   UNL     1      18.117  -5.565 -15.603  1.00  0.00    -0.295 OA
BRANCH   5   7
HETATM    7  C   UNL     1      16.298  -5.558 -14.015  1.00  0.00     0.258 C 
BRANCH   7   8
HETATM    8  O   UNL     1      16.058  -4.147 -14.060  1.00  0.00    -0.310 OA
BRANCH   8   9
HETATM    9  C   UNL     1      14.764  -3.753 -14.079  1.00  0.00     0.294 C 
HETATM   10  O   UNL     1      13.974  -3.839 -13.156  1.00  0.00    -0.259 OA
BRANCH   9  11
HETATM   11  C   UNL     1      14.439  -3.217 -15.427  1.00  0.00     0.054 A 
HETATM   12  C   UNL     1      13.883  -4.094 -16.363  1.00  0.00     0.049 A 
HETATM   13  C   UNL     1      13.543  -3.612 -17.621  1.00  0.00     0.044 A 
HETATM   14  N   UNL     1      13.778  -2.329 -17.967  1.00  0.00    -0.355 N 
HETATM   15  C   UNL     1      14.303  -1.478 -17.067  1.00  0.00     0.043 A 
HETATM   16  HN  UNL     1      13.559  -2.005 -18.909  1.00  0.00     0.166 HD
HETATM   17  C   UNL     1      14.483  -0.154 -17.446  1.00  0.00     0.030 A 
HETATM   18  C   UNL     1      14.668  -1.863 -15.759  1.00  0.00     0.007 A 
HETATM   19  C   UNL     1      15.011   0.809 -16.580  1.00  0.00     0.002 A 
HETATM   20  C   UNL     1      15.381   0.444 -15.297  1.00  0.00     0.001 A 
HETATM   21  C   UNL     1      15.210  -0.879 -14.891  1.00  0.00     0.015 A 
BRANCH  13  22
HETATM   22  C   UNL     1      12.858  -4.450 -18.630  1.00  0.00    -0.007 A 
HETATM   23  C   UNL     1      11.766  -5.258 -18.302  1.00  0.00     0.014 A 
HETATM   24  C   UNL     1      11.140  -6.032 -19.279  1.00  0.00     0.003 A 
HETATM   25  C   UNL     1      11.611  -6.037 -20.601  1.00  0.00     0.030 A 
HETATM   26  C   UNL     1      12.729  -5.284 -20.977  1.00  0.00     0.046 A 
HETATM   27  C   UNL     1      13.310  -4.488 -19.969  1.00  0.00     0.044 A 
BRANCH  26  28
HETATM   28  N   UNL     1      13.250  -5.290 -22.321  1.00  0.00    -0.252 N 
HETATM   29  C   UNL     1      12.866  -4.426 -23.337  1.00  0.00     0.236 C 
HETATM   30  O   UNL     1      11.938  -3.628 -23.361  1.00  0.00    -0.272 OA
HETATM   31  C   UNL     1      13.770  -4.629 -24.542  1.00  0.00     0.096 C 
HETATM   32  C   UNL     1      13.039  -5.002 -25.853  1.00  0.00    -0.000 C 
HETATM   33  C   UNL     1      14.524  -5.898 -24.195  1.00  0.00     0.096 C 
HETATM   34  C   UNL     1      14.042  -5.276 -27.001  1.00  0.00     0.006 C 
HETATM   35  C   UNL     1      12.601  -6.436 -25.561  1.00  0.00     0.011 C 
HETATM   36  C   UNL     1      14.786  -6.540 -26.537  1.00  0.00     0.006 C 
HETATM   37  C   UNL     1      14.030  -6.904 -25.249  1.00  0.00    -0.000 C 
HETATM   38  C   UNL     1      14.130  -6.240 -22.798  1.00  0.00     0.236 C 
HETATM   39  O   UNL     1      14.576  -7.247 -22.263  1.00  0.00    -0.272 OA
ENDBRANCH  26  28
ENDBRANCH  13  22
ENDBRANCH   9  11
ENDBRANCH   8   9
ENDBRANCH   7   8
ENDBRANCH   5   7
ENDBRANCH   2   5
TORSDOF 7
ENDMDL
MODEL 8
REMARK VINA RESULT:      -8.3      7.090     10.686
REMARK  7 active torsions:
REMARK  status: ('A' for Active; 'I' for Inactive)
REMARK    1  A    between atoms: C_2  and  C_5 
REMARK    2  A    between atoms: C_5  and  C_7 
REMARK    3  A    between atoms: C_7  and  O_8 
REMARK    4  A    between atoms: O_8  and  C_9 
REMARK    5  A    between atoms: C_9  and  C_11 
REMARK    6  A    between atoms: C_13  and  C_14 
REMARK    7  A    between atoms: C_18  and  N_20 
ROOT
HETATM    1  C   UNL     1      13.276  -5.766 -14.668  1.00  0.00     0.022 C 
HETATM    2  C   UNL     1      14.140  -6.090 -15.902  1.00  0.00     0.012 C 
HETATM    3  C   UNL     1      14.571  -7.560 -15.823  1.00  0.00     0.022 C 
HETATM    4  C   UNL     1      13.296  -5.854 -17.161  1.00  0.00     0.022 C 
ENDROOT
BRANCH   2   5
HETATM    5  C   UNL     1      15.389  -5.178 -15.915  1.00  0.00     0.158 C 
HETATM    6  O   UNL     1      16.130  -5.121 -16.900  1.00  0.00    -0.295 OA
BRANCH   5   7
HETATM    7  C   UNL     1      15.670  -4.342 -14.660  1.00  0.00     0.258 C 
BRANCH   7   8
HETATM    8  O   UNL     1      15.752  -2.949 -14.980  1.00  0.00    -0.310 OA
BRANCH   8   9
HETATM    9  C   UNL     1      14.597  -2.247 -14.927  1.00  0.00     0.294 C 
HETATM   10  O   UNL     1      13.837  -2.186 -13.977  1.00  0.00    -0.259 OA
BRANCH   9  11
HETATM   11  C   UNL     1      14.377  -1.574 -16.235  1.00  0.00     0.054 A 
HETATM   12  C   UNL     1      13.673  -2.272 -17.220  1.00  0.00     0.049 A 
HETATM   13  C   UNL     1      13.429  -1.656 -18.440  1.00  0.00     0.044 A 
HETATM   14  N   UNL     1      13.894  -0.416 -18.705  1.00  0.00    -0.355 N 
HETATM   15  C   UNL     1      14.562   0.265 -17.757  1.00  0.00     0.043 A 
HETATM   16  HN  UNL     1      13.739   0.003 -19.622  1.00  0.00     0.166 HD
HETATM   17  C   UNL     1      14.980   1.556 -18.050  1.00  0.00     0.030 A 
HETATM   18  C   UNL     1      14.848  -0.265 -16.481  1.00  0.00     0.007 A 
HETATM   19  C   UNL     1      15.671   2.350 -17.129  1.00  0.00     0.002 A 
HETATM   20  C   UNL     1      15.966   1.840 -15.877  1.00  0.00     0.001 A 
HETATM   21  C   UNL     1      15.558   0.546 -15.555  1.00  0.00     0.015 A 
BRANCH  13  22
HETATM   22  C   UNL     1      12.606  -2.288 -19.495  1.00  0.00    -0.007 A 
HETATM   23  C   UNL     1      11.219  -2.126 -19.547  1.00  0.00     0.014 A 
HETATM   24  C   UNL     1      10.473  -2.732 -20.558  1.00  0.00     0.003 A 
HETATM   25  C   UNL     1      11.096  -3.538 -21.523  1.00  0.00     0.030 A 
HETATM   26  C   UNL     1      12.475  -3.775 -21.494  1.00  0.00     0.046 A 
HETATM   27  C   UNL     1      13.196  -3.114 -20.478  1.00  0.00     0.044 A 
BRANCH  26  28
HETATM   28  N   UNL     1      13.137  -4.619 -22.456  1.00  0.00    -0.252 N 
HETATM   29  C   UNL     1      13.075  -4.469 -23.835  1.00  0.00     0.236 C 
HETATM   30  O   UNL     1      12.356  -3.734 -24.500  1.00  0.00    -0.272 OA
HETATM   31  C   UNL     1      14.048  -5.434 -24.492  1.00  0.00     0.096 C 
HETATM   32  C   UNL     1      13.413  -6.413 -25.507  1.00  0.00    -0.000 C 
HETATM   33  C   UNL     1      14.457  -6.341 -23.348  1.00  0.00     0.096 C 
HETATM   34  C   UNL     1      14.460  -7.413 -26.057  1.00  0.00     0.006 C 
HETATM   35  C   UNL     1      12.638  -7.351 -24.582  1.00  0.00     0.011 C 
HETATM   36  C   UNL     1      14.846  -8.247 -24.824  1.00  0.00     0.006 C 
HETATM   37  C   UNL     1      13.882  -7.708 -23.755  1.00  0.00    -0.000 C 
HETATM   38  C   UNL     1      13.835  -5.761 -22.123  1.00  0.00     0.236 C 
HETATM   39  O   UNL     1      13.982  -6.313 -21.040  1.00  0.00    -0.272 OA
ENDBRANCH  26  28
ENDBRANCH  13  22
ENDBRANCH   9  11
ENDBRANCH   8   9
ENDBRANCH   7   8
ENDBRANCH   5   7
ENDBRANCH   2   5
TORSDOF 7
ENDMDL
MODEL 9
REMARK VINA RESULT:      -8.3      6.921     10.062
REMARK  7 active torsions:
REMARK  status: ('A' for Active; 'I' for Inactive)
REMARK    1  A    between atoms: C_2  and  C_5 
REMARK    2  A    between atoms: C_5  and  C_7 
REMARK    3  A    between atoms: C_7  and  O_8 
REMARK    4  A    between atoms: O_8  and  C_9 
REMARK    5  A    between atoms: C_9  and  C_11 
REMARK    6  A    between atoms: C_13  and  C_14 
REMARK    7  A    between atoms: C_18  and  N_20 
ROOT
HETATM    1  C   UNL     1      15.186  -2.473 -16.820  1.00  0.00     0.022 C 
HETATM    2  C   UNL     1      14.602  -2.296 -15.406  1.00  0.00     0.012 C 
HETATM    3  C   UNL     1      15.648  -1.595 -14.529  1.00  0.00     0.022 C 
HETATM    4  C   UNL     1      13.337  -1.434 -15.508  1.00  0.00     0.022 C 
ENDROOT
BRANCH   2   5
HETATM    5  C   UNL     1      14.260  -3.681 -14.808  1.00  0.00     0.158 C 
HETATM    6  O   UNL     1      13.338  -4.364 -15.262  1.00  0.00    -0.295 OA
BRANCH   5   7
HETATM    7  C   UNL     1      15.112  -4.176 -13.634  1.00  0.00     0.258 C 
BRANCH   7   8
HETATM    8  O   UNL     1      15.661  -5.469 -13.908  1.00  0.00    -0.310 OA
BRANCH   8   9
HETATM    9  C   UNL     1      17.011  -5.565 -13.913  1.00  0.00     0.294 C 
HETATM   10  O   UNL     1      17.704  -5.979 -13.001  1.00  0.00    -0.259 OA
BRANCH   9  11
HETATM   11  C   UNL     1      17.530  -5.055 -15.209  1.00  0.00     0.054 A 
HETATM   12  C   UNL     1      17.098  -5.683 -16.381  1.00  0.00     0.049 A 
HETATM   13  C   UNL     1      17.545  -5.208 -17.606  1.00  0.00     0.044 A 
HETATM   14  N   UNL     1      18.419  -4.182 -17.684  1.00  0.00    -0.355 N 
HETATM   15  C   UNL     1      18.829  -3.566 -16.561  1.00  0.00     0.043 A 
HETATM   16  HN  UNL     1      18.767  -3.874 -18.592  1.00  0.00     0.166 HD
HETATM   17  C   UNL     1      19.689  -2.482 -16.685  1.00  0.00     0.030 A 
HETATM   18  C   UNL     1      18.423  -3.961 -15.269  1.00  0.00     0.007 A 
HETATM   19  C   UNL     1      20.164  -1.769 -15.580  1.00  0.00     0.002 A 
HETATM   20  C   UNL     1      19.779  -2.151 -14.306  1.00  0.00     0.001 A 
HETATM   21  C   UNL     1      18.917  -3.235 -14.152  1.00  0.00     0.015 A 
BRANCH  13  22
HETATM   22  C   UNL     1      17.055  -5.753 -18.892  1.00  0.00    -0.007 A 
HETATM   23  C   UNL     1      17.844  -6.583 -19.692  1.00  0.00     0.014 A 
HETATM   24  C   UNL     1      17.348  -7.084 -20.896  1.00  0.00     0.003 A 
HETATM   25  C   UNL     1      16.062  -6.741 -21.341  1.00  0.00     0.030 A 
HETATM   26  C   UNL     1      15.245  -5.876 -20.604  1.00  0.00     0.046 A 
HETATM   27  C   UNL     1      15.769  -5.422 -19.376  1.00  0.00     0.044 A 
BRANCH  26  28
HETATM   28  N   UNL     1      13.931  -5.487 -21.049  1.00  0.00    -0.252 N 
HETATM   29  C   UNL     1      13.651  -4.435 -21.910  1.00  0.00     0.236 C 
HETATM   30  O   UNL     1      14.398  -3.557 -22.324  1.00  0.00    -0.272 OA
HETATM   31  C   UNL     1      12.178  -4.463 -22.280  1.00  0.00     0.096 C 
HETATM   32  C   UNL     1      11.395  -3.171 -21.947  1.00  0.00    -0.000 C 
HETATM   33  C   UNL     1      11.600  -5.475 -21.310  1.00  0.00     0.096 C 
HETATM   34  C   UNL     1       9.889  -3.322 -22.276  1.00  0.00     0.006 C 
HETATM   35  C   UNL     1      11.323  -3.241 -20.423  1.00  0.00     0.011 C 
HETATM   36  C   UNL     1       9.409  -4.395 -21.283  1.00  0.00     0.006 C 
HETATM   37  C   UNL     1      10.665  -4.629 -20.429  1.00  0.00    -0.000 C 
HETATM   38  C   UNL     1      12.764  -6.054 -20.580  1.00  0.00     0.236 C 
HETATM   39  O   UNL     1      12.585  -6.892 -19.706  1.00  0.00    -0.272 OA
ENDBRANCH  26  28
ENDBRANCH  13  22
ENDBRANCH   9  11
ENDBRANCH   8   9
ENDBRANCH   7   8
ENDBRANCH   5   7
ENDBRANCH   2   5
TORSDOF 7
ENDMDL
