MODEL 1
REMARK VINA RESULT:      -7.8      0.000      0.000
REMARK  6 active torsions:
REMARK  status: ('A' for Active; 'I' for Inactive)
REMARK    1  A    between atoms: C_7  and  N_8 
REMARK       I    between atoms: N_8  and  C_9 
REMARK    2  A    between atoms: C_9  and  C_11 
REMARK    3  A    between atoms: C_11  and  N_13 
REMARK    4  A    between atoms: C_22  and  C_23 
REMARK    5  A    between atoms: C_28  and  S_30 
REMARK    6  A    between atoms: S_30  and  N_33 
ROOT
HETATM    1  C   UNL     1      19.259  -0.740 -22.090  1.00  0.00     0.050 C 
HETATM    2  C   UNL     1      20.561  -1.325 -21.617  1.00  0.00    -0.035 A 
HETATM    3  C   UNL     1      21.570  -1.556 -22.575  1.00  0.00     0.009 A 
HETATM    4  C   UNL     1      22.789  -2.129 -22.219  1.00  0.00     0.001 A 
HETATM    5  C   UNL     1      23.029  -2.454 -20.893  1.00  0.00     0.002 A 
HETATM    6  C   UNL     1      22.043  -2.223 -19.933  1.00  0.00     0.030 A 
HETATM    7  C   UNL     1      20.794  -1.681 -20.273  1.00  0.00     0.040 A 
ENDROOT
BRANCH   7   8
HETATM    8  N   UNL     1      19.784  -1.493 -19.295  1.00  0.00    -0.325 N 
HETATM    9  C   UNL     1      18.861  -2.440 -18.890  1.00  0.00     0.246 C 
HETATM   10  O   UNL     1      18.758  -3.575 -19.364  1.00  0.00    -0.271 OA
HETATM   11  HN  UNL     1      19.667  -0.573 -18.880  1.00  0.00     0.169 HD
BRANCH   9  12
HETATM   12  C   UNL     1      17.876  -2.005 -17.792  1.00  0.00     0.199 C 
HETATM   13  C   UNL     1      17.598  -0.505 -17.927  1.00  0.00     0.044 C 
BRANCH  12  14
HETATM   14  N   UNL     1      16.630  -2.777 -17.644  1.00  0.00    -0.243 N 
HETATM   15  C   UNL     1      16.194  -3.040 -16.350  1.00  0.00     0.269 C 
HETATM   16  O   UNL     1      16.799  -2.707 -15.333  1.00  0.00    -0.266 OA
HETATM   17  C   UNL     1      14.949  -3.839 -16.234  1.00  0.00     0.020 C 
HETATM   18  C   UNL     1      14.675  -4.415 -14.867  1.00  0.00     0.045 C 
HETATM   19  C   UNL     1      14.155  -4.036 -17.300  1.00  0.00    -0.017 C 
HETATM   20  C   UNL     1      13.251  -4.946 -14.717  1.00  0.00     0.005 C 
HETATM   21  C   UNL     1      12.879  -5.787 -15.929  1.00  0.00     0.005 C 
HETATM   22  C   UNL     1      12.942  -4.933 -17.203  1.00  0.00     0.042 C 
HETATM   23  C   UNL     1      14.608  -3.386 -18.581  1.00  0.00     0.065 C 
HETATM   24  N   UNL     1      15.792  -2.865 -18.739  1.00  0.00    -0.294 N 
HETATM   25  HN  UNL     1      16.094  -2.528 -19.653  1.00  0.00     0.187 HD
BRANCH  23  26
HETATM   26  C   UNL     1      13.673  -3.326 -19.763  1.00  0.00    -0.006 A 
HETATM   27  C   UNL     1      12.642  -2.381 -19.790  1.00  0.00     0.014 A 
HETATM   28  C   UNL     1      11.747  -2.327 -20.871  1.00  0.00     0.009 A 
HETATM   29  C   UNL     1      11.877  -3.191 -21.972  1.00  0.00    -0.039 A 
HETATM   30  C   UNL     1      10.885  -3.104 -23.098  1.00  0.00     0.050 C 
HETATM   31  C   UNL     1      12.915  -4.135 -21.940  1.00  0.00     0.081 A 
HETATM   32  C   UNL     1      13.745  -4.243 -20.813  1.00  0.00     0.039 A 
BRANCH  31  33
HETATM   33  S   UNL     1      13.272  -5.219 -23.303  1.00  0.00     0.239 S 
HETATM   34  O   UNL     1      12.192  -6.165 -23.443  1.00  0.00    -0.206 OA
HETATM   35  O   UNL     1      13.770  -4.443 -24.410  1.00  0.00    -0.206 OA
BRANCH  33  36
HETATM   36  N   UNL     1      14.561  -6.138 -22.737  1.00  0.00    -0.225 NA
HETATM   37  HN1 UNL     1      15.107  -6.488 -23.525  1.00  0.00     0.136 HD
HETATM   38  HN2 UNL     1      15.113  -5.586 -22.080  1.00  0.00     0.136 HD
ENDBRANCH  33  36
ENDBRANCH  31  33
ENDBRANCH  23  26
ENDBRANCH  12  14
ENDBRANCH   9  12
ENDBRANCH   7   8
TORSDOF 6
ENDMDL
MODEL 2
REMARK VINA RESULT:      -7.8      3.399      8.455
REMARK  6 active torsions:
REMARK  status: ('A' for Active; 'I' for Inactive)
REMARK    1  A    between atoms: C_7  and  N_8 
REMARK       I    between atoms: N_8  and  C_9 
REMARK    2  A    between atoms: C_9  and  C_11 
REMARK    3  A    between atoms: C_11  and  N_13 
REMARK    4  A    between atoms: C_22  and  C_23 
REMARK    5  A    between atoms: C_28  and  S_30 
REMARK    6  A    between atoms: S_30  and  N_33 
ROOT
HETATM    1  C   UNL     1      14.334  -3.660 -22.029  1.00  0.00     0.050 C 
HETATM    2  C   UNL     1      12.903  -3.368 -21.673  1.00  0.00    -0.035 A 
HETATM    3  C   UNL     1      11.896  -3.828 -22.547  1.00  0.00     0.009 A 
HETATM    4  C   UNL     1      10.550  -3.565 -22.302  1.00  0.00     0.001 A 
HETATM    5  C   UNL     1      10.188  -2.861 -21.165  1.00  0.00     0.002 A 
HETATM    6  C   UNL     1      11.173  -2.406 -20.287  1.00  0.00     0.030 A 
HETATM    7  C   UNL     1      12.537  -2.627 -20.531  1.00  0.00     0.040 A 
ENDROOT
BRANCH   7   8
HETATM    8  N   UNL     1      13.531  -2.121 -19.654  1.00  0.00    -0.325 N 
HETATM    9  C   UNL     1      13.946  -2.709 -18.473  1.00  0.00     0.246 C 
HETATM   10  O   UNL     1      13.469  -3.740 -17.991  1.00  0.00    -0.271 OA
HETATM   11  HN  UNL     1      13.950  -1.218 -19.856  1.00  0.00     0.169 HD
BRANCH   9  12
HETATM   12  C   UNL     1      15.060  -1.978 -17.704  1.00  0.00     0.199 C 
HETATM   13  C   UNL     1      16.085  -3.000 -17.206  1.00  0.00     0.044 C 
BRANCH  12  14
HETATM   14  N   UNL     1      15.710  -0.832 -18.363  1.00  0.00    -0.243 N 
HETATM   15  C   UNL     1      15.390   0.437 -17.895  1.00  0.00     0.269 C 
HETATM   16  O   UNL     1      14.576   0.663 -17.002  1.00  0.00    -0.266 OA
HETATM   17  C   UNL     1      16.044   1.571 -18.595  1.00  0.00     0.020 C 
HETATM   18  C   UNL     1      15.441   2.929 -18.331  1.00  0.00     0.045 C 
HETATM   19  C   UNL     1      17.085   1.364 -19.420  1.00  0.00    -0.017 C 
HETATM   20  C   UNL     1      16.327   4.078 -18.806  1.00  0.00     0.005 C 
HETATM   21  C   UNL     1      16.844   3.792 -20.208  1.00  0.00     0.005 C 
HETATM   22  C   UNL     1      17.682   2.507 -20.208  1.00  0.00     0.042 C 
HETATM   23  C   UNL     1      17.533  -0.067 -19.560  1.00  0.00     0.065 C 
HETATM   24  N   UNL     1      16.840  -1.080 -19.118  1.00  0.00    -0.294 N 
HETATM   25  HN  UNL     1      17.129  -2.036 -19.325  1.00  0.00     0.187 HD
BRANCH  23  26
HETATM   26  C   UNL     1      18.837  -0.381 -20.249  1.00  0.00    -0.006 A 
HETATM   27  C   UNL     1      18.837  -0.825 -21.575  1.00  0.00     0.014 A 
HETATM   28  C   UNL     1      20.040  -1.146 -22.225  1.00  0.00     0.009 A 
HETATM   29  C   UNL     1      21.280  -0.998 -21.580  1.00  0.00    -0.039 A 
HETATM   30  C   UNL     1      22.540  -1.367 -22.312  1.00  0.00     0.050 C 
HETATM   31  C   UNL     1      21.274  -0.548 -20.251  1.00  0.00     0.081 A 
HETATM   32  C   UNL     1      20.061  -0.322 -19.581  1.00  0.00     0.039 A 
BRANCH  31  33
HETATM   33  S   UNL     1      22.765  -0.208 -19.342  1.00  0.00     0.239 S 
HETATM   34  O   UNL     1      23.404  -1.458 -19.010  1.00  0.00    -0.206 OA
HETATM   35  O   UNL     1      23.469   0.878 -19.974  1.00  0.00    -0.206 OA
BRANCH  33  36
HETATM   36  N   UNL     1      22.195   0.373 -17.872  1.00  0.00    -0.225 NA
HETATM   37  HN1 UNL     1      22.974   0.734 -17.319  1.00  0.00     0.136 HD
HETATM   38  HN2 UNL     1      21.464   1.065 -18.036  1.00  0.00     0.136 HD
ENDBRANCH  33  36
ENDBRANCH  31  33
ENDBRANCH  23  26
ENDBRANCH  12  14
ENDBRANCH   9  12
ENDBRANCH   7   8
TORSDOF 6
ENDMDL
MODEL 3
REMARK VINA RESULT:      -7.8      2.784      3.252
REMARK  6 active torsions:
REMARK  status: ('A' for Active; 'I' for Inactive)
REMARK    1  A    between atoms: C_7  and  N_8 
REMARK       I    between atoms: N_8  and  C_9 
REMARK    2  A    between atoms: C_9  and  C_11 
REMARK    3  A    between atoms: C_11  and  N_13 
REMARK    4  A    between atoms: C_22  and  C_23 
REMARK    5  A    between atoms: C_28  and  S_30 
REMARK    6  A    between atoms: S_30  and  N_33 
ROOT
HETATM    1  C   UNL     1      18.660  -1.528 -20.906  1.00  0.00     0.050 C 
HETATM    2  C   UNL     1      19.693  -0.438 -20.864  1.00  0.00    -0.035 A 
HETATM    3  C   UNL     1      20.837  -0.579 -21.677  1.00  0.00     0.009 A 
HETATM    4  C   UNL     1      21.855   0.373 -21.666  1.00  0.00     0.001 A 
HETATM    5  C   UNL     1      21.732   1.494 -20.861  1.00  0.00     0.002 A 
HETATM    6  C   UNL     1      20.601   1.651 -20.058  1.00  0.00     0.030 A 
HETATM    7  C   UNL     1      19.580   0.689 -20.025  1.00  0.00     0.040 A 
ENDROOT
BRANCH   7   8
HETATM    8  N   UNL     1      18.458   0.838 -19.171  1.00  0.00    -0.325 N 
HETATM    9  C   UNL     1      17.340   1.612 -19.428  1.00  0.00     0.246 C 
HETATM   10  O   UNL     1      17.187   2.323 -20.425  1.00  0.00    -0.271 OA
HETATM   11  HN  UNL     1      18.474   0.397 -18.256  1.00  0.00     0.169 HD
BRANCH   9  12
HETATM   12  C   UNL     1      16.239   1.595 -18.354  1.00  0.00     0.199 C 
HETATM   13  C   UNL     1      15.160   2.617 -18.720  1.00  0.00     0.044 C 
BRANCH  12  14
HETATM   14  N   UNL     1      15.654   0.293 -17.993  1.00  0.00    -0.243 N 
HETATM   15  C   UNL     1      15.127   0.165 -16.712  1.00  0.00     0.269 C 
HETATM   16  O   UNL     1      15.156   1.048 -15.858  1.00  0.00    -0.266 OA
HETATM   17  C   UNL     1      14.565  -1.166 -16.371  1.00  0.00     0.020 C 
HETATM   18  C   UNL     1      14.322  -1.410 -14.902  1.00  0.00     0.045 C 
HETATM   19  C   UNL     1      14.324  -2.078 -17.329  1.00  0.00    -0.017 C 
HETATM   20  C   UNL     1      13.461  -2.642 -14.636  1.00  0.00     0.005 C 
HETATM   21  C   UNL     1      13.950  -3.811 -15.477  1.00  0.00     0.005 C 
HETATM   22  C   UNL     1      13.848  -3.467 -16.968  1.00  0.00     0.042 C 
HETATM   23  C   UNL     1      14.644  -1.648 -18.737  1.00  0.00     0.065 C 
HETATM   24  N   UNL     1      15.325  -0.572 -19.018  1.00  0.00    -0.294 N 
HETATM   25  HN  UNL     1      15.608  -0.374 -19.978  1.00  0.00     0.187 HD
BRANCH  23  26
HETATM   26  C   UNL     1      14.178  -2.485 -19.901  1.00  0.00    -0.006 A 
HETATM   27  C   UNL     1      15.114  -3.127 -20.719  1.00  0.00     0.014 A 
HETATM   28  C   UNL     1      14.699  -3.890 -21.822  1.00  0.00     0.009 A 
HETATM   29  C   UNL     1      13.336  -4.064 -22.120  1.00  0.00    -0.039 A 
HETATM   30  C   UNL     1      12.942  -4.878 -23.320  1.00  0.00     0.050 C 
HETATM   31  C   UNL     1      12.402  -3.421 -21.294  1.00  0.00     0.081 A 
HETATM   32  C   UNL     1      12.831  -2.583 -20.251  1.00  0.00     0.039 A 
BRANCH  31  33
HETATM   33  S   UNL     1      10.646  -3.634 -21.478  1.00  0.00     0.239 S 
HETATM   34  O   UNL     1      10.237  -3.066 -22.740  1.00  0.00    -0.206 OA
HETATM   35  O   UNL     1      10.286  -4.970 -21.076  1.00  0.00    -0.206 OA
BRANCH  33  36
HETATM   36  N   UNL     1      10.009  -2.591 -20.324  1.00  0.00    -0.225 NA
HETATM   37  HN1 UNL     1       9.654  -1.749 -20.780  1.00  0.00     0.136 HD
HETATM   38  HN2 UNL     1       9.302  -3.079 -19.774  1.00  0.00     0.136 HD
ENDBRANCH  33  36
ENDBRANCH  31  33
ENDBRANCH  23  26
ENDBRANCH  12  14
ENDBRANCH   9  12
ENDBRANCH   7   8
TORSDOF 6
ENDMDL
MODEL 4
REMARK VINA RESULT:      -7.7      2.885      3.481
REMARK  6 active torsions:
REMARK  status: ('A' for Active; 'I' for Inactive)
REMARK    1  A    between atoms: C_7  and  N_8 
REMARK       I    between atoms: N_8  and  C_9 
REMARK    2  A    between atoms: C_9  and  C_11 
REMARK    3  A    between atoms: C_11  and  N_13 
REMARK    4  A    between atoms: C_22  and  C_23 
REMARK    5  A    between atoms: C_28  and  S_30 
REMARK    6  A    between atoms: S_30  and  N_33 
ROOT
HETATM    1  C   UNL     1      19.077  -0.625 -20.609  1.00  0.00     0.050 C 
HETATM    2  C   UNL     1      19.616   0.777 -20.674  1.00  0.00    -0.035 A 
HETATM    3  C   UNL     1      20.878   0.973 -21.275  1.00  0.00     0.009 A 
HETATM    4  C   UNL     1      21.459   2.238 -21.340  1.00  0.00     0.001 A 
HETATM    5  C   UNL     1      20.776   3.330 -20.830  1.00  0.00     0.002 A 
HETATM    6  C   UNL     1      19.523   3.152 -20.242  1.00  0.00     0.030 A 
HETATM    7  C   UNL     1      18.933   1.884 -20.131  1.00  0.00     0.040 A 
ENDROOT
BRANCH   7   8
HETATM    8  N   UNL     1      17.680   1.710 -19.490  1.00  0.00    -0.325 N 
HETATM    9  C   UNL     1      17.465   1.687 -18.124  1.00  0.00     0.246 C 
HETATM   10  O   UNL     1      18.349   1.768 -17.267  1.00  0.00    -0.271 OA
HETATM   11  HN  UNL     1      16.859   1.525 -20.058  1.00  0.00     0.169 HD
BRANCH   9  12
HETATM   12  C   UNL     1      16.006   1.507 -17.668  1.00  0.00     0.199 C 
HETATM   13  C   UNL     1      15.087   2.324 -18.579  1.00  0.00     0.044 C 
BRANCH  12  14
HETATM   14  N   UNL     1      15.510   0.132 -17.487  1.00  0.00    -0.243 N 
HETATM   15  C   UNL     1      14.976  -0.193 -16.245  1.00  0.00     0.269 C 
HETATM   16  O   UNL     1      14.930   0.575 -15.286  1.00  0.00    -0.266 OA
HETATM   17  C   UNL     1      14.505  -1.592 -16.086  1.00  0.00     0.020 C 
HETATM   18  C   UNL     1      14.260  -2.035 -14.665  1.00  0.00     0.045 C 
HETATM   19  C   UNL     1      14.343  -2.389 -17.156  1.00  0.00    -0.017 C 
HETATM   20  C   UNL     1      13.484  -3.348 -14.575  1.00  0.00     0.005 C 
HETATM   21  C   UNL     1      14.068  -4.364 -15.545  1.00  0.00     0.005 C 
HETATM   22  C   UNL     1      13.962  -3.842 -16.983  1.00  0.00     0.042 C 
HETATM   23  C   UNL     1      14.652  -1.763 -18.491  1.00  0.00     0.065 C 
HETATM   24  N   UNL     1      15.257  -0.616 -18.620  1.00  0.00    -0.294 N 
HETATM   25  HN  UNL     1      15.539  -0.278 -19.540  1.00  0.00     0.187 HD
BRANCH  23  26
HETATM   26  C   UNL     1      14.262  -2.476 -19.762  1.00  0.00    -0.006 A 
HETATM   27  C   UNL     1      15.252  -2.997 -20.601  1.00  0.00     0.014 A 
HETATM   28  C   UNL     1      14.909  -3.642 -21.801  1.00  0.00     0.009 A 
HETATM   29  C   UNL     1      13.567  -3.816 -22.179  1.00  0.00    -0.039 A 
HETATM   30  C   UNL     1      13.250  -4.501 -23.479  1.00  0.00     0.050 C 
HETATM   31  C   UNL     1      12.578  -3.295 -21.331  1.00  0.00     0.081 A 
HETATM   32  C   UNL     1      12.935  -2.569 -20.183  1.00  0.00     0.039 A 
BRANCH  31  33
HETATM   33  S   UNL     1      10.839  -3.531 -21.619  1.00  0.00     0.239 S 
HETATM   34  O   UNL     1      10.485  -2.912 -22.873  1.00  0.00    -0.206 OA
HETATM   35  O   UNL     1      10.486  -4.891 -21.299  1.00  0.00    -0.206 OA
BRANCH  33  36
HETATM   36  N   UNL     1      10.120  -2.557 -20.454  1.00  0.00    -0.225 NA
HETATM   37  HN1 UNL     1       9.127  -2.444 -20.664  1.00  0.00     0.136 HD
HETATM   38  HN2 UNL     1      10.293  -2.946 -19.526  1.00  0.00     0.136 HD
ENDBRANCH  33  36
ENDBRANCH  31  33
ENDBRANCH  23  26
ENDBRANCH  12  14
ENDBRANCH   9  12
ENDBRANCH   7   8
TORSDOF 6
ENDMDL
MODEL 5
REMARK VINA RESULT:      -7.7      2.543      3.059
REMARK  6 active torsions:
REMARK  status: ('A' for Active; 'I' for Inactive)
REMARK    1  A    between atoms: C_7  and  N_8 
REMARK       I    between atoms: N_8  and  C_9 
REMARK    2  A    between atoms: C_9  and  C_11 
REMARK    3  A    between atoms: C_11  and  N_13 
REMARK    4  A    between atoms: C_22  and  C_23 
REMARK    5  A    between atoms: C_28  and  S_30 
REMARK    6  A    between atoms: S_30  and  N_33 
ROOT
HETATM    1  C   UNL     1      19.563  -1.032 -22.336  1.00  0.00     0.050 C 
HETATM    2  C   UNL     1      20.608  -1.278 -21.284  1.00  0.00    -0.035 A 
HETATM    3  C   UNL     1      21.824  -1.870 -21.684  1.00  0.00     0.009 A 
HETATM    4  C   UNL     1      22.826  -2.162 -20.760  1.00  0.00     0.001 A 
HETATM    5  C   UNL     1      22.638  -1.840 -19.425  1.00  0.00     0.002 A 
HETATM    6  C   UNL     1      21.443  -1.245 -19.017  1.00  0.00     0.030 A 
HETATM    7  C   UNL     1      20.405  -0.976 -19.922  1.00  0.00     0.040 A 
ENDROOT
BRANCH   7   8
HETATM    8  N   UNL     1      19.179  -0.413 -19.487  1.00  0.00    -0.325 N 
HETATM    9  C   UNL     1      18.905   0.937 -19.361  1.00  0.00     0.246 C 
HETATM   10  O   UNL     1      19.715   1.845 -19.568  1.00  0.00    -0.271 OA
HETATM   11  HN  UNL     1      18.436  -1.033 -19.176  1.00  0.00     0.169 HD
BRANCH   9  12
HETATM   12  C   UNL     1      17.487   1.304 -18.889  1.00  0.00     0.199 C 
HETATM   13  C   UNL     1      16.776   2.093 -19.991  1.00  0.00     0.044 C 
BRANCH  12  14
HETATM   14  N   UNL     1      16.639   0.220 -18.362  1.00  0.00    -0.243 N 
HETATM   15  C   UNL     1      16.112   0.388 -17.086  1.00  0.00     0.269 C 
HETATM   16  O   UNL     1      16.341   1.355 -16.363  1.00  0.00    -0.266 OA
HETATM   17  C   UNL     1      15.281  -0.730 -16.575  1.00  0.00     0.020 C 
HETATM   18  C   UNL     1      15.009  -0.709 -15.091  1.00  0.00     0.045 C 
HETATM   19  C   UNL     1      14.838  -1.694 -17.401  1.00  0.00    -0.017 C 
HETATM   20  C   UNL     1      13.906  -1.678 -14.672  1.00  0.00     0.005 C 
HETATM   21  C   UNL     1      14.122  -3.030 -15.334  1.00  0.00     0.005 C 
HETATM   22  C   UNL     1      14.079  -2.883 -16.861  1.00  0.00     0.042 C 
HETATM   23  C   UNL     1      15.228  -1.543 -18.849  1.00  0.00     0.065 C 
HETATM   24  N   UNL     1      16.120  -0.688 -19.264  1.00  0.00    -0.294 N 
HETATM   25  HN  UNL     1      16.428  -0.690 -20.236  1.00  0.00     0.187 HD
BRANCH  23  26
HETATM   26  C   UNL     1      14.578  -2.414 -19.894  1.00  0.00    -0.006 A 
HETATM   27  C   UNL     1      15.372  -3.140 -20.789  1.00  0.00     0.014 A 
HETATM   28  C   UNL     1      14.785  -3.937 -21.785  1.00  0.00     0.009 A 
HETATM   29  C   UNL     1      13.389  -4.060 -21.895  1.00  0.00    -0.039 A 
HETATM   30  C   UNL     1      12.808  -4.914 -22.986  1.00  0.00     0.050 C 
HETATM   31  C   UNL     1      12.599  -3.333 -20.992  1.00  0.00     0.081 A 
HETATM   32  C   UNL     1      13.194  -2.466 -20.062  1.00  0.00     0.039 A 
BRANCH  31  33
HETATM   33  S   UNL     1      10.826  -3.472 -20.935  1.00  0.00     0.239 S 
HETATM   34  O   UNL     1      10.284  -3.054 -22.205  1.00  0.00    -0.206 OA
HETATM   35  O   UNL     1      10.468  -4.721 -20.313  1.00  0.00    -0.206 OA
BRANCH  33  36
HETATM   36  N   UNL     1      10.379  -2.252 -19.868  1.00  0.00    -0.225 NA
HETATM   37  HN1 UNL     1      10.904  -1.402 -20.078  1.00  0.00     0.136 HD
HETATM   38  HN2 UNL     1       9.368  -2.120 -19.904  1.00  0.00     0.136 HD
ENDBRANCH  33  36
ENDBRANCH  31  33
ENDBRANCH  23  26
ENDBRANCH  12  14
ENDBRANCH   9  12
ENDBRANCH   7   8
TORSDOF 6
ENDMDL
MODEL 6
REMARK VINA RESULT:      -7.7      6.664      9.724
REMARK  6 active torsions:
REMARK  status: ('A' for Active; 'I' for Inactive)
REMARK    1  A    between atoms: C_7  and  N_8 
REMARK       I    between atoms: N_8  and  C_9 
REMARK    2  A    between atoms: C_9  and  C_11 
REMARK    3  A    between atoms: C_11  and  N_13 
REMARK    4  A    between atoms: C_22  and  C_23 
REMARK    5  A    between atoms: C_28  and  S_30 
REMARK    6  A    between atoms: S_30  and  N_33 
ROOT
HETATM    1  C   UNL     1      16.389  -5.136 -29.069  1.00  0.00     0.050 C 
HETATM    2  C   UNL     1      16.373  -5.994 -30.303  1.00  0.00    -0.035 A 
HETATM    3  C   UNL     1      16.960  -5.477 -31.477  1.00  0.00     0.009 A 
HETATM    4  C   UNL     1      16.952  -6.199 -32.669  1.00  0.00     0.001 A 
HETATM    5  C   UNL     1      16.381  -7.461 -32.698  1.00  0.00     0.002 A 
HETATM    6  C   UNL     1      15.804  -7.989 -31.542  1.00  0.00     0.030 A 
HETATM    7  C   UNL     1      15.768  -7.266 -30.340  1.00  0.00     0.040 A 
ENDROOT
BRANCH   7   8
HETATM    8  N   UNL     1      15.138  -7.796 -29.184  1.00  0.00    -0.325 N 
HETATM    9  C   UNL     1      15.778  -8.400 -28.117  1.00  0.00     0.246 C 
HETATM   10  O   UNL     1      16.993  -8.607 -28.046  1.00  0.00    -0.271 OA
HETATM   11  HN  UNL     1      14.124  -7.799 -29.135  1.00  0.00     0.169 HD
BRANCH   9  12
HETATM   12  C   UNL     1      14.878  -8.876 -26.964  1.00  0.00     0.199 C 
HETATM   13  C   UNL     1      15.311 -10.278 -26.530  1.00  0.00     0.044 C 
BRANCH  12  14
HETATM   14  N   UNL     1      14.711  -7.977 -25.809  1.00  0.00    -0.243 N 
HETATM   15  C   UNL     1      13.809  -6.927 -25.945  1.00  0.00     0.269 C 
HETATM   16  O   UNL     1      13.179  -6.682 -26.972  1.00  0.00    -0.266 OA
HETATM   17  C   UNL     1      13.680  -6.026 -24.773  1.00  0.00     0.020 C 
HETATM   18  C   UNL     1      12.985  -4.713 -25.039  1.00  0.00     0.045 C 
HETATM   19  C   UNL     1      14.181  -6.376 -23.576  1.00  0.00    -0.017 C 
HETATM   20  C   UNL     1      12.597  -3.974 -23.761  1.00  0.00     0.005 C 
HETATM   21  C   UNL     1      13.763  -3.974 -22.784  1.00  0.00     0.005 C 
HETATM   22  C   UNL     1      14.138  -5.414 -22.411  1.00  0.00     0.042 C 
HETATM   23  C   UNL     1      14.849  -7.725 -23.516  1.00  0.00     0.065 C 
HETATM   24  N   UNL     1      15.147  -8.423 -24.577  1.00  0.00    -0.294 N 
HETATM   25  HN  UNL     1      15.692  -9.281 -24.497  1.00  0.00     0.187 HD
BRANCH  23  26
HETATM   26  C   UNL     1      15.214  -8.323 -22.181  1.00  0.00    -0.006 A 
HETATM   27  C   UNL     1      16.222  -7.739 -21.406  1.00  0.00     0.014 A 
HETATM   28  C   UNL     1      16.592  -8.297 -20.172  1.00  0.00     0.009 A 
HETATM   29  C   UNL     1      15.942  -9.433 -19.659  1.00  0.00    -0.039 A 
HETATM   30  C   UNL     1      16.383 -10.001 -18.339  1.00  0.00     0.050 C 
HETATM   31  C   UNL     1      14.930 -10.012 -20.439  1.00  0.00     0.081 A 
HETATM   32  C   UNL     1      14.633  -9.502 -21.713  1.00  0.00     0.039 A 
BRANCH  31  33
HETATM   33  S   UNL     1      13.945 -11.382 -19.877  1.00  0.00     0.239 S 
HETATM   34  O   UNL     1      14.755 -12.576 -19.894  1.00  0.00    -0.206 OA
HETATM   35  O   UNL     1      13.185 -10.978 -18.721  1.00  0.00    -0.206 OA
BRANCH  33  36
HETATM   36  N   UNL     1      12.846 -11.605 -21.128  1.00  0.00    -0.225 NA
HETATM   37  HN1 UNL     1      12.907 -10.824 -21.783  1.00  0.00     0.136 HD
HETATM   38  HN2 UNL     1      13.005 -12.512 -21.567  1.00  0.00     0.136 HD
ENDBRANCH  33  36
ENDBRANCH  31  33
ENDBRANCH  23  26
ENDBRANCH  12  14
ENDBRANCH   9  12
ENDBRANCH   7   8
TORSDOF 6
ENDMDL
MODEL 7
REMARK VINA RESULT:      -7.6      2.546      3.237
REMARK  6 active torsions:
REMARK  status: ('A' for Active; 'I' for Inactive)
REMARK    1  A    between atoms: C_7  and  N_8 
REMARK       I    between atoms: N_8  and  C_9 
REMARK    2  A    between atoms: C_9  and  C_11 
REMARK    3  A    between atoms: C_11  and  N_13 
REMARK    4  A    between atoms: C_22  and  C_23 
REMARK    5  A    between atoms: C_28  and  S_30 
REMARK    6  A    between atoms: S_30  and  N_33 
ROOT
HETATM    1  C   UNL     1      21.650  -1.043 -18.209  1.00  0.00     0.050 C 
HETATM    2  C   UNL     1      21.468  -1.274 -19.683  1.00  0.00    -0.035 A 
HETATM    3  C   UNL     1      22.551  -1.814 -20.407  1.00  0.00     0.009 A 
HETATM    4  C   UNL     1      22.470  -2.023 -21.783  1.00  0.00     0.001 A 
HETATM    5  C   UNL     1      21.295  -1.720 -22.451  1.00  0.00     0.002 A 
HETATM    6  C   UNL     1      20.212  -1.192 -21.746  1.00  0.00     0.030 A 
HETATM    7  C   UNL     1      20.282  -0.939 -20.368  1.00  0.00     0.040 A 
ENDROOT
BRANCH   7   8
HETATM    8  N   UNL     1      19.190  -0.360 -19.671  1.00  0.00    -0.325 N 
HETATM    9  C   UNL     1      18.633   0.880 -19.924  1.00  0.00     0.246 C 
HETATM   10  O   UNL     1      19.044   1.681 -20.768  1.00  0.00    -0.271 OA
HETATM   11  HN  UNL     1      18.800  -0.852 -18.872  1.00  0.00     0.169 HD
BRANCH   9  12
HETATM   12  C   UNL     1      17.435   1.280 -19.045  1.00  0.00     0.199 C 
HETATM   13  C   UNL     1      16.594   2.325 -19.783  1.00  0.00     0.044 C 
BRANCH  12  14
HETATM   14  N   UNL     1      16.599   0.200 -18.494  1.00  0.00    -0.243 N 
HETATM   15  C   UNL     1      16.085   0.383 -17.214  1.00  0.00     0.269 C 
HETATM   16  O   UNL     1      16.316   1.361 -16.507  1.00  0.00    -0.266 OA
HETATM   17  C   UNL     1      15.266  -0.732 -16.678  1.00  0.00     0.020 C 
HETATM   18  C   UNL     1      15.010  -0.691 -15.192  1.00  0.00     0.045 C 
HETATM   19  C   UNL     1      14.819  -1.709 -17.485  1.00  0.00    -0.017 C 
HETATM   20  C   UNL     1      13.917  -1.660 -14.747  1.00  0.00     0.005 C 
HETATM   21  C   UNL     1      14.134  -3.020 -15.391  1.00  0.00     0.005 C 
HETATM   22  C   UNL     1      14.073  -2.895 -16.919  1.00  0.00     0.042 C 
HETATM   23  C   UNL     1      15.191  -1.577 -18.939  1.00  0.00     0.065 C 
HETATM   24  N   UNL     1      16.074  -0.724 -19.376  1.00  0.00    -0.294 N 
HETATM   25  HN  UNL     1      16.372  -0.738 -20.352  1.00  0.00     0.187 HD
BRANCH  23  26
HETATM   26  C   UNL     1      14.535  -2.467 -19.965  1.00  0.00    -0.006 A 
HETATM   27  C   UNL     1      15.323  -3.219 -20.843  1.00  0.00     0.014 A 
HETATM   28  C   UNL     1      14.730  -4.034 -21.821  1.00  0.00     0.009 A 
HETATM   29  C   UNL     1      13.333  -4.148 -21.927  1.00  0.00    -0.039 A 
HETATM   30  C   UNL     1      12.745  -5.022 -23.000  1.00  0.00     0.050 C 
HETATM   31  C   UNL     1      12.548  -3.394 -21.042  1.00  0.00     0.081 A 
HETATM   32  C   UNL     1      13.151  -2.511 -20.131  1.00  0.00     0.039 A 
BRANCH  31  33
HETATM   33  S   UNL     1      10.775  -3.517 -20.982  1.00  0.00     0.239 S 
HETATM   34  O   UNL     1      10.237  -3.135 -22.265  1.00  0.00    -0.206 OA
HETATM   35  O   UNL     1      10.406  -4.744 -20.322  1.00  0.00    -0.206 OA
BRANCH  33  36
HETATM   36  N   UNL     1      10.336  -2.262 -19.954  1.00  0.00    -0.225 NA
HETATM   37  HN1 UNL     1      11.174  -1.834 -19.557  1.00  0.00     0.136 HD
HETATM   38  HN2 UNL     1       9.745  -1.598 -20.456  1.00  0.00     0.136 HD
ENDBRANCH  33  36
ENDBRANCH  31  33
ENDBRANCH  23  26
ENDBRANCH  12  14
ENDBRANCH   9  12
ENDBRANCH   7   8
TORSDOF 6
ENDMDL
MODEL 8
REMARK VINA RESULT:      -7.5     11.316     15.088
REMARK  6 active torsions:
REMARK  status: ('A' for Active; 'I' for Inactive)
REMARK    1  A    between atoms: C_7  and  N_8 
REMARK       I    between atoms: N_8  and  C_9 
REMARK    2  A    between atoms: C_9  and  C_11 
REMARK    3  A    between atoms: C_11  and  N_13 
REMARK    4  A    between atoms: C_22  and  C_23 
REMARK    5  A    between atoms: C_28  and  S_30 
REMARK    6  A    between atoms: S_30  and  N_33 
ROOT
HETATM    1  C   UNL     1      14.086 -15.693 -32.503  1.00  0.00     0.050 C 
HETATM    2  C   UNL     1      15.306 -15.684 -31.624  1.00  0.00    -0.035 A 
HETATM    3  C   UNL     1      15.499 -16.773 -30.749  1.00  0.00     0.009 A 
HETATM    4  C   UNL     1      16.587 -16.818 -29.878  1.00  0.00     0.001 A 
HETATM    5  C   UNL     1      17.512 -15.787 -29.889  1.00  0.00     0.002 A 
HETATM    6  C   UNL     1      17.338 -14.707 -30.755  1.00  0.00     0.030 A 
HETATM    7  C   UNL     1      16.232 -14.621 -31.615  1.00  0.00     0.040 A 
ENDROOT
BRANCH   7   8
HETATM    8  N   UNL     1      16.042 -13.497 -32.458  1.00  0.00    -0.325 N 
HETATM    9  C   UNL     1      15.307 -12.366 -32.149  1.00  0.00     0.246 C 
HETATM   10  O   UNL     1      14.670 -12.201 -31.105  1.00  0.00    -0.271 OA
HETATM   11  HN  UNL     1      16.419 -13.520 -33.401  1.00  0.00     0.169 HD
BRANCH   9  12
HETATM   12  C   UNL     1      15.268 -11.265 -33.223  1.00  0.00     0.199 C 
HETATM   13  C   UNL     1      13.906 -11.289 -33.922  1.00  0.00     0.044 C 
BRANCH  12  14
HETATM   14  N   UNL     1      15.648  -9.900 -32.819  1.00  0.00    -0.243 N 
HETATM   15  C   UNL     1      15.615  -8.915 -33.800  1.00  0.00     0.269 C 
HETATM   16  O   UNL     1      15.332  -9.117 -34.978  1.00  0.00    -0.266 OA
HETATM   17  C   UNL     1      16.025  -7.555 -33.367  1.00  0.00     0.020 C 
HETATM   18  C   UNL     1      16.325  -6.584 -34.482  1.00  0.00     0.045 C 
HETATM   19  C   UNL     1      16.134  -7.251 -32.063  1.00  0.00    -0.017 C 
HETATM   20  C   UNL     1      16.427  -5.138 -34.004  1.00  0.00     0.005 C 
HETATM   21  C   UNL     1      17.283  -5.064 -32.748  1.00  0.00     0.005 C 
HETATM   22  C   UNL     1      16.649  -5.898 -31.628  1.00  0.00     0.042 C 
HETATM   23  C   UNL     1      15.801  -8.362 -31.102  1.00  0.00     0.065 C 
HETATM   24  N   UNL     1      15.645  -9.603 -31.470  1.00  0.00    -0.294 N 
HETATM   25  HN  UNL     1      15.523 -10.340 -30.775  1.00  0.00     0.187 HD
BRANCH  23  26
HETATM   26  C   UNL     1      15.641  -8.061 -29.633  1.00  0.00    -0.006 A 
HETATM   27  C   UNL     1      16.700  -8.307 -28.751  1.00  0.00     0.014 A 
HETATM   28  C   UNL     1      16.561  -8.057 -27.376  1.00  0.00     0.009 A 
HETATM   29  C   UNL     1      15.374  -7.520 -26.847  1.00  0.00    -0.039 A 
HETATM   30  C   UNL     1      15.269  -7.282 -25.367  1.00  0.00     0.050 C 
HETATM   31  C   UNL     1      14.318  -7.271 -27.737  1.00  0.00     0.081 A 
HETATM   32  C   UNL     1      14.435  -7.615 -29.094  1.00  0.00     0.039 A 
BRANCH  31  33
HETATM   33  S   UNL     1      12.799  -6.494 -27.237  1.00  0.00     0.239 S 
HETATM   34  O   UNL     1      12.020  -7.439 -26.474  1.00  0.00    -0.206 OA
HETATM   35  O   UNL     1      13.081  -5.162 -26.763  1.00  0.00    -0.206 OA
BRANCH  33  36
HETATM   36  N   UNL     1      11.957  -6.328 -28.682  1.00  0.00    -0.225 NA
HETATM   37  HN1 UNL     1      12.519  -5.797 -29.349  1.00  0.00     0.136 HD
HETATM   38  HN2 UNL     1      11.685  -7.248 -29.028  1.00  0.00     0.136 HD
ENDBRANCH  33  36
ENDBRANCH  31  33
ENDBRANCH  23  26
ENDBRANCH  12  14
ENDBRANCH   9  12
ENDBRANCH   7   8
TORSDOF 6
ENDMDL
MODEL 9
REMARK VINA RESULT:      -7.5      6.832     10.013
REMARK  6 active torsions:
REMARK  status: ('A' for Active; 'I' for Inactive)
REMARK    1  A    between atoms: C_7  and  N_8 
REMARK       I    between atoms: N_8  and  C_9 
REMARK    2  A    between atoms: C_9  and  C_11 
REMARK    3  A    between atoms: C_11  and  N_13 
REMARK    4  A    between atoms: C_22  and  C_23 
REMARK    5  A    between atoms: C_28  and  S_30 
REMARK    6  A    between atoms: S_30  and  N_33 
ROOT
HETATM    1  C   UNL     1      16.394  -5.209 -29.590  1.00  0.00     0.050 C 
HETATM    2  C   UNL     1      16.393  -6.047 -30.837  1.00  0.00    -0.035 A 
HETATM    3  C   UNL     1      16.893  -5.470 -32.024  1.00  0.00     0.009 A 
HETATM    4  C   UNL     1      16.892  -6.173 -33.227  1.00  0.00     0.001 A 
HETATM    5  C   UNL     1      16.417  -7.474 -33.257  1.00  0.00     0.002 A 
HETATM    6  C   UNL     1      15.927  -8.061 -32.089  1.00  0.00     0.030 A 
HETATM    7  C   UNL     1      15.884  -7.361 -30.874  1.00  0.00     0.040 A 
ENDROOT
BRANCH   7   8
HETATM    8  N   UNL     1      15.343  -7.954 -29.704  1.00  0.00    -0.325 N 
HETATM    9  C   UNL     1      16.068  -8.457 -28.640  1.00  0.00     0.246 C 
HETATM   10  O   UNL     1      17.300  -8.504 -28.583  1.00  0.00    -0.271 OA
HETATM   11  HN  UNL     1      14.337  -8.087 -29.641  1.00  0.00     0.169 HD
BRANCH   9  12
HETATM   12  C   UNL     1      15.251  -9.032 -27.470  1.00  0.00     0.199 C 
HETATM   13  C   UNL     1      15.876 -10.354 -27.017  1.00  0.00     0.044 C 
BRANCH  12  14
HETATM   14  N   UNL     1      14.971  -8.144 -26.328  1.00  0.00    -0.243 N 
HETATM   15  C   UNL     1      14.107  -7.077 -26.549  1.00  0.00     0.269 C 
HETATM   16  O   UNL     1      13.600  -6.808 -27.636  1.00  0.00    -0.266 OA
HETATM   17  C   UNL     1      13.863  -6.188 -25.386  1.00  0.00     0.020 C 
HETATM   18  C   UNL     1      13.224  -4.860 -25.709  1.00  0.00     0.045 C 
HETATM   19  C   UNL     1      14.222  -6.562 -24.145  1.00  0.00    -0.017 C 
HETATM   20  C   UNL     1      12.707  -4.129 -24.471  1.00  0.00     0.005 C 
HETATM   21  C   UNL     1      13.758  -4.162 -23.371  1.00  0.00     0.005 C 
HETATM   22  C   UNL     1      14.065  -5.613 -22.979  1.00  0.00     0.042 C 
HETATM   23  C   UNL     1      14.858  -7.923 -24.031  1.00  0.00     0.065 C 
HETATM   24  N   UNL     1      15.260  -8.613 -25.061  1.00  0.00    -0.294 N 
HETATM   25  HN  UNL     1      15.778  -9.482 -24.934  1.00  0.00     0.187 HD
BRANCH  23  26
HETATM   26  C   UNL     1      15.062  -8.543 -22.672  1.00  0.00    -0.006 A 
HETATM   27  C   UNL     1      14.404  -9.734 -22.343  1.00  0.00     0.014 A 
HETATM   28  C   UNL     1      14.562 -10.313 -21.073  1.00  0.00     0.009 A 
HETATM   29  C   UNL     1      15.409  -9.740 -20.108  1.00  0.00    -0.039 A 
HETATM   30  C   UNL     1      15.535 -10.390 -18.759  1.00  0.00     0.050 C 
HETATM   31  C   UNL     1      16.068  -8.548 -20.446  1.00  0.00     0.081 A 
HETATM   32  C   UNL     1      15.829  -7.927 -21.683  1.00  0.00     0.039 A 
BRANCH  31  33
HETATM   33  S   UNL     1      17.253  -7.765 -19.375  1.00  0.00     0.239 S 
HETATM   34  O   UNL     1      17.967  -6.760 -20.124  1.00  0.00    -0.206 OA
HETATM   35  O   UNL     1      16.633  -7.489 -18.104  1.00  0.00    -0.206 OA
BRANCH  33  36
HETATM   36  N   UNL     1      18.389  -8.975 -19.109  1.00  0.00    -0.225 NA
HETATM   37  HN1 UNL     1      18.421  -9.205 -18.114  1.00  0.00     0.136 HD
HETATM   38  HN2 UNL     1      18.180  -9.779 -19.700  1.00  0.00     0.136 HD
ENDBRANCH  33  36
ENDBRANCH  31  33
ENDBRANCH  23  26
ENDBRANCH  12  14
ENDBRANCH   9  12
ENDBRANCH   7   8
TORSDOF 6
ENDMDL
