MODEL 1
REMARK VINA RESULT:      -8.2      0.000      0.000
REMARK  5 active torsions:
REMARK  status: ('A' for Active; 'I' for Inactive)
REMARK    1  A    between atoms: C_2  and  C_3 
REMARK    2  A    between atoms: C_2  and  N_14 
REMARK       I    between atoms: C_3  and  N_5 
REMARK    3  A    between atoms: C_23  and  N_26 
REMARK    4  A    between atoms: N_26  and  C_27 
REMARK       I    between atoms: N_26  and  C_35 
REMARK    5  A    between atoms: C_27  and  C_28 
ROOT
HETATM    1  C   UNL     1      13.752  -3.819 -14.511  1.00  0.00     0.043 C 
HETATM    2  C   UNL     1      14.165  -3.547 -15.963  1.00  0.00     0.182 C 
ENDROOT
BRANCH   2   3
HETATM    3  C   UNL     1      14.016  -2.065 -16.409  1.00  0.00     0.247 C 
HETATM    4  O   UNL     1      14.715  -1.163 -15.932  1.00  0.00    -0.271 OA
HETATM    5  N   UNL     1      13.045  -1.738 -17.341  1.00  0.00    -0.315 N 
HETATM    6  C   UNL     1      12.657  -0.327 -17.514  1.00  0.00     0.137 A 
HETATM    7  C   UNL     1      12.391  -2.512 -18.318  1.00  0.00     0.043 A 
HETATM    8  C   UNL     1      11.577  -0.276 -18.595  1.00  0.00     0.061 A 
HETATM    9  C   UNL     1      11.530  -1.698 -19.058  1.00  0.00    -0.030 A 
HETATM   10  C   UNL     1      10.761  -2.207 -20.094  1.00  0.00     0.009 A 
HETATM   11  C   UNL     1      10.874  -3.562 -20.411  1.00  0.00     0.001 A 
HETATM   12  C   UNL     1      11.757  -4.376 -19.705  1.00  0.00     0.002 A 
HETATM   13  C   UNL     1      12.519  -3.853 -18.663  1.00  0.00     0.030 A 
ENDBRANCH   2   3
BRANCH   2  14
HETATM   14  N   UNL     1      15.415  -4.254 -16.276  1.00  0.00    -0.296 N 
HETATM   15  C   UNL     1      16.677  -3.816 -15.795  1.00  0.00     0.065 A 
HETATM   16  C   UNL     1      16.809  -2.826 -14.805  1.00  0.00     0.032 A 
HETATM   17  C   UNL     1      17.833  -4.376 -16.359  1.00  0.00     0.061 A 
HETATM   18  C   UNL     1      18.061  -2.355 -14.416  1.00  0.00     0.002 A 
HETATM   19  C   UNL     1      19.201  -2.879 -15.008  1.00  0.00     0.002 A 
HETATM   20  C   UNL     1      19.085  -3.884 -15.970  1.00  0.00     0.032 A 
HETATM   21  N   UNL     1      17.808  -5.457 -17.258  1.00  0.00    -0.336 N 
HETATM   22  C   UNL     1      16.663  -5.992 -17.565  1.00  0.00     0.180 C 
HETATM   23  HN  UNL     1      18.673  -5.814 -17.664  1.00  0.00     0.168 HD
HETATM   24  C   UNL     1      15.332  -5.339 -17.160  1.00  0.00     0.293 C 
HETATM   25  O   UNL     1      14.293  -5.706 -17.703  1.00  0.00    -0.264 OA
BRANCH  22  26
HETATM   26  N   UNL     1      16.616  -7.164 -18.345  1.00  0.00    -0.295 N 
HETATM   27  C   UNL     1      16.549  -8.423 -17.747  1.00  0.00     0.221 C 
HETATM   28  O   UNL     1      16.722  -8.600 -16.537  1.00  0.00    -0.273 OA
HETATM   29  C   UNL     1      16.397  -9.652 -18.626  1.00  0.00     0.117 C 
BRANCH  26  30
HETATM   30  C   UNL     1      16.898  -7.025 -19.771  1.00  0.00     0.172 C 
BRANCH  30  31
HETATM   31  C   UNL     1      15.989  -6.069 -20.532  1.00  0.00    -0.040 A 
HETATM   32  C   UNL     1      16.100  -4.668 -20.482  1.00  0.00     0.012 A 
HETATM   33  C   UNL     1      15.282  -3.863 -21.282  1.00  0.00     0.043 A 
HETATM   34  C   UNL     1      14.352  -4.449 -22.133  1.00  0.00     0.116 A 
HETATM   35  C   UNL     1      14.201  -5.828 -22.175  1.00  0.00     0.043 A 
HETATM   36  F   UNL     1      13.600  -3.677 -22.928  1.00  0.00    -0.206 F 
HETATM   37  C   UNL     1      15.010  -6.633 -21.373  1.00  0.00     0.012 A 
ENDBRANCH  30  31
ENDBRANCH  26  30
ENDBRANCH  22  26
ENDBRANCH   2  14
TORSDOF 5
ENDMDL
MODEL 2
REMARK VINA RESULT:      -8.1      2.651      6.933
REMARK  5 active torsions:
REMARK  status: ('A' for Active; 'I' for Inactive)
REMARK    1  A    between atoms: C_2  and  C_3 
REMARK    2  A    between atoms: C_2  and  N_14 
REMARK       I    between atoms: C_3  and  N_5 
REMARK    3  A    between atoms: C_23  and  N_26 
REMARK    4  A    between atoms: N_26  and  C_27 
REMARK       I    between atoms: N_26  and  C_35 
REMARK    5  A    between atoms: C_27  and  C_28 
ROOT
HETATM    1  C   UNL     1      16.986  -2.517 -20.260  1.00  0.00     0.043 C 
HETATM    2  C   UNL     1      15.691  -3.112 -19.693  1.00  0.00     0.182 C 
ENDROOT
BRANCH   2   3
HETATM    3  C   UNL     1      15.739  -4.647 -19.448  1.00  0.00     0.247 C 
HETATM    4  O   UNL     1      15.960  -5.125 -18.329  1.00  0.00    -0.271 OA
HETATM    5  N   UNL     1      15.569  -5.504 -20.522  1.00  0.00    -0.315 N 
HETATM    6  C   UNL     1      15.951  -6.920 -20.382  1.00  0.00     0.137 A 
HETATM    7  C   UNL     1      14.944  -5.323 -21.771  1.00  0.00     0.043 A 
HETATM    8  C   UNL     1      15.654  -7.610 -21.714  1.00  0.00     0.061 A 
HETATM    9  C   UNL     1      14.981  -6.521 -22.488  1.00  0.00    -0.030 A 
HETATM   10  C   UNL     1      14.430  -6.625 -23.756  1.00  0.00     0.009 A 
HETATM   11  C   UNL     1      13.805  -5.507 -24.311  1.00  0.00     0.001 A 
HETATM   12  C   UNL     1      13.730  -4.317 -23.590  1.00  0.00     0.002 A 
HETATM   13  C   UNL     1      14.292  -4.224 -22.320  1.00  0.00     0.030 A 
ENDBRANCH   2   3
BRANCH   2  14
HETATM   14  N   UNL     1      15.156  -2.246 -18.632  1.00  0.00    -0.296 N 
HETATM   15  C   UNL     1      13.848  -1.696 -18.687  1.00  0.00     0.065 A 
HETATM   16  C   UNL     1      12.888  -2.116 -19.624  1.00  0.00     0.032 A 
HETATM   17  C   UNL     1      13.521  -0.672 -17.786  1.00  0.00     0.061 A 
HETATM   18  C   UNL     1      11.643  -1.497 -19.710  1.00  0.00     0.002 A 
HETATM   19  C   UNL     1      11.338  -0.454 -18.847  1.00  0.00     0.002 A 
HETATM   20  C   UNL     1      12.271  -0.048 -17.891  1.00  0.00     0.032 A 
HETATM   21  N   UNL     1      14.362  -0.272 -16.732  1.00  0.00    -0.336 N 
HETATM   22  C   UNL     1      15.489  -0.898 -16.556  1.00  0.00     0.180 C 
HETATM   23  HN  UNL     1      14.094   0.496 -16.117  1.00  0.00     0.168 HD
HETATM   24  C   UNL     1      16.029  -1.895 -17.593  1.00  0.00     0.293 C 
HETATM   25  O   UNL     1      17.207  -2.240 -17.538  1.00  0.00    -0.264 OA
BRANCH  22  26
HETATM   26  N   UNL     1      16.284  -0.620 -15.427  1.00  0.00    -0.295 N 
HETATM   27  C   UNL     1      16.923   0.611 -15.284  1.00  0.00     0.221 C 
HETATM   28  O   UNL     1      16.996   1.438 -16.198  1.00  0.00    -0.273 OA
HETATM   29  C   UNL     1      17.687   0.904 -14.005  1.00  0.00     0.117 C 
BRANCH  26  30
HETATM   30  C   UNL     1      16.618  -1.744 -14.557  1.00  0.00     0.172 C 
BRANCH  30  31
HETATM   31  C   UNL     1      15.507  -2.762 -14.340  1.00  0.00    -0.040 A 
HETATM   32  C   UNL     1      14.240  -2.447 -13.818  1.00  0.00     0.012 A 
HETATM   33  C   UNL     1      13.243  -3.425 -13.733  1.00  0.00     0.043 A 
HETATM   34  C   UNL     1      13.506  -4.720 -14.167  1.00  0.00     0.116 A 
HETATM   35  C   UNL     1      14.758  -5.064 -14.654  1.00  0.00     0.043 A 
HETATM   36  F   UNL     1      12.537  -5.644 -14.124  1.00  0.00    -0.206 F 
HETATM   37  C   UNL     1      15.756  -4.092 -14.733  1.00  0.00     0.012 A 
ENDBRANCH  30  31
ENDBRANCH  26  30
ENDBRANCH  22  26
ENDBRANCH   2  14
TORSDOF 5
ENDMDL
MODEL 3
REMARK VINA RESULT:      -8.0      2.539      4.393
REMARK  5 active torsions:
REMARK  status: ('A' for Active; 'I' for Inactive)
REMARK    1  A    between atoms: C_2  and  C_3 
REMARK    2  A    between atoms: C_2  and  N_14 
REMARK       I    between atoms: C_3  and  N_5 
REMARK    3  A    between atoms: C_23  and  N_26 
REMARK    4  A    between atoms: N_26  and  C_27 
REMARK       I    between atoms: N_26  and  C_35 
REMARK    5  A    between atoms: C_27  and  C_28 
ROOT
HETATM    1  C   UNL     1      13.864  -4.320 -13.207  1.00  0.00     0.043 C 
HETATM    2  C   UNL     1      14.255  -3.865 -14.618  1.00  0.00     0.182 C 
ENDROOT
BRANCH   2   3
HETATM    3  C   UNL     1      13.884  -2.390 -14.946  1.00  0.00     0.247 C 
HETATM    4  O   UNL     1      13.958  -1.492 -14.099  1.00  0.00    -0.271 OA
HETATM    5  N   UNL     1      13.421  -2.079 -16.213  1.00  0.00    -0.315 N 
HETATM    6  C   UNL     1      12.747  -0.789 -16.439  1.00  0.00     0.137 A 
HETATM    7  C   UNL     1      13.582  -2.731 -17.451  1.00  0.00     0.043 A 
HETATM    8  C   UNL     1      12.350  -0.729 -17.915  1.00  0.00     0.061 A 
HETATM    9  C   UNL     1      12.969  -1.979 -18.456  1.00  0.00    -0.030 A 
HETATM   10  C   UNL     1      12.980  -2.391 -19.781  1.00  0.00     0.009 A 
HETATM   11  C   UNL     1      13.643  -3.575 -20.110  1.00  0.00     0.001 A 
HETATM   12  C   UNL     1      14.289  -4.314 -19.122  1.00  0.00     0.002 A 
HETATM   13  C   UNL     1      14.266  -3.893 -17.795  1.00  0.00     0.030 A 
ENDBRANCH   2   3
BRANCH   2  14
HETATM   14  N   UNL     1      15.605  -4.342 -14.950  1.00  0.00    -0.296 N 
HETATM   15  C   UNL     1      15.854  -5.665 -15.401  1.00  0.00     0.065 A 
HETATM   16  C   UNL     1      14.824  -6.541 -15.786  1.00  0.00     0.032 A 
HETATM   17  C   UNL     1      17.182  -6.118 -15.428  1.00  0.00     0.061 A 
HETATM   18  C   UNL     1      15.093  -7.861 -16.141  1.00  0.00     0.002 A 
HETATM   19  C   UNL     1      16.403  -8.320 -16.123  1.00  0.00     0.002 A 
HETATM   20  C   UNL     1      17.438  -7.451 -15.772  1.00  0.00     0.032 A 
HETATM   21  N   UNL     1      18.288  -5.283 -15.185  1.00  0.00    -0.336 N 
HETATM   22  C   UNL     1      18.082  -4.020 -14.954  1.00  0.00     0.180 C 
HETATM   23  HN  UNL     1      19.234  -5.662 -15.190  1.00  0.00     0.168 HD
HETATM   24  C   UNL     1      16.670  -3.462 -14.711  1.00  0.00     0.293 C 
HETATM   25  O   UNL     1      16.543  -2.345 -14.218  1.00  0.00    -0.264 OA
BRANCH  22  26
HETATM   26  N   UNL     1      19.171  -3.132 -14.852  1.00  0.00    -0.295 N 
HETATM   27  C   UNL     1      20.090  -3.240 -13.808  1.00  0.00     0.221 C 
HETATM   28  O   UNL     1      19.907  -3.967 -12.827  1.00  0.00    -0.273 OA
HETATM   29  C   UNL     1      21.304  -2.327 -13.794  1.00  0.00     0.117 C 
BRANCH  26  30
HETATM   30  C   UNL     1      19.153  -1.955 -15.717  1.00  0.00     0.172 C 
BRANCH  30  31
HETATM   31  C   UNL     1      18.632  -2.184 -17.130  1.00  0.00    -0.040 A 
HETATM   32  C   UNL     1      19.154  -3.142 -18.016  1.00  0.00     0.012 A 
HETATM   33  C   UNL     1      18.561  -3.350 -19.266  1.00  0.00     0.043 A 
HETATM   34  C   UNL     1      17.447  -2.605 -19.636  1.00  0.00     0.116 A 
HETATM   35  C   UNL     1      16.934  -1.630 -18.793  1.00  0.00     0.043 A 
HETATM   36  F   UNL     1      16.856  -2.835 -20.816  1.00  0.00    -0.206 F 
HETATM   37  C   UNL     1      17.529  -1.415 -17.549  1.00  0.00     0.012 A 
ENDBRANCH  30  31
ENDBRANCH  26  30
ENDBRANCH  22  26
ENDBRANCH   2  14
TORSDOF 5
ENDMDL
MODEL 4
REMARK VINA RESULT:      -8.0      2.691      6.778
REMARK  5 active torsions:
REMARK  status: ('A' for Active; 'I' for Inactive)
REMARK    1  A    between atoms: C_2  and  C_3 
REMARK    2  A    between atoms: C_2  and  N_14 
REMARK       I    between atoms: C_3  and  N_5 
REMARK    3  A    between atoms: C_23  and  N_26 
REMARK    4  A    between atoms: N_26  and  C_27 
REMARK       I    between atoms: N_26  and  C_35 
REMARK    5  A    between atoms: C_27  and  C_28 
ROOT
HETATM    1  C   UNL     1      13.907  -8.632 -17.307  1.00  0.00     0.043 C 
HETATM    2  C   UNL     1      14.158  -7.149 -17.608  1.00  0.00     0.182 C 
ENDROOT
BRANCH   2   3
HETATM    3  C   UNL     1      15.549  -6.625 -17.152  1.00  0.00     0.247 C 
HETATM    4  O   UNL     1      16.536  -6.651 -17.898  1.00  0.00    -0.271 OA
HETATM    5  N   UNL     1      15.698  -6.150 -15.860  1.00  0.00    -0.315 N 
HETATM    6  C   UNL     1      17.052  -5.980 -15.306  1.00  0.00     0.137 A 
HETATM    7  C   UNL     1      14.762  -5.638 -14.941  1.00  0.00     0.043 A 
HETATM    8  C   UNL     1      16.901  -5.449 -13.879  1.00  0.00     0.061 A 
HETATM    9  C   UNL     1      15.425  -5.229 -13.781  1.00  0.00    -0.030 A 
HETATM   10  C   UNL     1      14.739  -4.680 -12.708  1.00  0.00     0.009 A 
HETATM   11  C   UNL     1      13.356  -4.515 -12.809  1.00  0.00     0.001 A 
HETATM   12  C   UNL     1      12.689  -4.885 -13.975  1.00  0.00     0.002 A 
HETATM   13  C   UNL     1      13.389  -5.441 -15.043  1.00  0.00     0.030 A 
ENDBRANCH   2   3
BRANCH   2  14
HETATM   14  N   UNL     1      13.690  -6.820 -18.963  1.00  0.00    -0.296 N 
HETATM   15  C   UNL     1      14.130  -7.529 -20.111  1.00  0.00     0.065 A 
HETATM   16  C   UNL     1      14.851  -8.733 -20.029  1.00  0.00     0.032 A 
HETATM   17  C   UNL     1      13.856  -6.982 -21.374  1.00  0.00     0.061 A 
HETATM   18  C   UNL     1      15.344  -9.360 -21.172  1.00  0.00     0.002 A 
HETATM   19  C   UNL     1      15.111  -8.792 -22.416  1.00  0.00     0.002 A 
HETATM   20  C   UNL     1      14.369  -7.613 -22.514  1.00  0.00     0.032 A 
HETATM   21  N   UNL     1      13.036  -5.855 -21.566  1.00  0.00    -0.336 N 
HETATM   22  C   UNL     1      12.473  -5.305 -20.531  1.00  0.00     0.180 C 
HETATM   23  HN  UNL     1      12.886  -5.477 -22.501  1.00  0.00     0.168 HD
HETATM   24  C   UNL     1      12.856  -5.702 -19.096  1.00  0.00     0.293 C 
HETATM   25  O   UNL     1      12.525  -4.974 -18.164  1.00  0.00    -0.264 OA
BRANCH  22  26
HETATM   26  N   UNL     1      11.533  -4.270 -20.704  1.00  0.00    -0.295 N 
HETATM   27  C   UNL     1      10.173  -4.550 -20.840  1.00  0.00     0.221 C 
HETATM   28  O   UNL     1       9.738  -5.693 -21.014  1.00  0.00    -0.273 OA
HETATM   29  C   UNL     1       9.186  -3.399 -20.922  1.00  0.00     0.117 C 
BRANCH  26  30
HETATM   30  C   UNL     1      12.057  -2.938 -20.991  1.00  0.00     0.172 C 
BRANCH  30  31
HETATM   31  C   UNL     1      12.428  -2.100 -19.774  1.00  0.00    -0.040 A 
HETATM   32  C   UNL     1      11.496  -1.411 -18.979  1.00  0.00     0.012 A 
HETATM   33  C   UNL     1      11.910  -0.736 -17.825  1.00  0.00     0.043 A 
HETATM   34  C   UNL     1      13.252  -0.745 -17.461  1.00  0.00     0.116 A 
HETATM   35  C   UNL     1      14.195  -1.389 -18.249  1.00  0.00     0.043 A 
HETATM   36  F   UNL     1      13.639  -0.133 -16.334  1.00  0.00    -0.206 F 
HETATM   37  C   UNL     1      13.786  -2.057 -19.403  1.00  0.00     0.012 A 
ENDBRANCH  30  31
ENDBRANCH  26  30
ENDBRANCH  22  26
ENDBRANCH   2  14
TORSDOF 5
ENDMDL
MODEL 5
REMARK VINA RESULT:      -8.0      4.978      7.898
REMARK  5 active torsions:
REMARK  status: ('A' for Active; 'I' for Inactive)
REMARK    1  A    between atoms: C_2  and  C_3 
REMARK    2  A    between atoms: C_2  and  N_14 
REMARK       I    between atoms: C_3  and  N_5 
REMARK    3  A    between atoms: C_23  and  N_26 
REMARK    4  A    between atoms: N_26  and  C_27 
REMARK       I    between atoms: N_26  and  C_35 
REMARK    5  A    between atoms: C_27  and  C_28 
ROOT
HETATM    1  C   UNL     1      19.926  -0.107 -17.557  1.00  0.00     0.043 C 
HETATM    2  C   UNL     1      19.108  -0.022 -18.853  1.00  0.00     0.182 C 
ENDROOT
BRANCH   2   3
HETATM    3  C   UNL     1      19.467  -1.100 -19.914  1.00  0.00     0.247 C 
HETATM    4  O   UNL     1      18.776  -2.113 -20.079  1.00  0.00    -0.271 OA
HETATM    5  N   UNL     1      20.616  -0.942 -20.671  1.00  0.00    -0.315 N 
HETATM    6  C   UNL     1      21.153  -2.093 -21.417  1.00  0.00     0.137 A 
HETATM    7  C   UNL     1      21.364   0.204 -21.003  1.00  0.00     0.043 A 
HETATM    8  C   UNL     1      22.411  -1.622 -22.147  1.00  0.00     0.061 A 
HETATM    9  C   UNL     1      22.414  -0.155 -21.852  1.00  0.00    -0.030 A 
HETATM   10  C   UNL     1      23.309   0.786 -22.338  1.00  0.00     0.009 A 
HETATM   11  C   UNL     1      23.134   2.125 -21.983  1.00  0.00     0.001 A 
HETATM   12  C   UNL     1      22.069   2.500 -21.167  1.00  0.00     0.002 A 
HETATM   13  C   UNL     1      21.181   1.544 -20.681  1.00  0.00     0.030 A 
ENDBRANCH   2   3
BRANCH   2  14
HETATM   14  N   UNL     1      17.691   0.218 -18.543  1.00  0.00    -0.296 N 
HETATM   15  C   UNL     1      16.997   1.368 -19.003  1.00  0.00     0.065 A 
HETATM   16  C   UNL     1      17.529   2.240 -19.969  1.00  0.00     0.032 A 
HETATM   17  C   UNL     1      15.744   1.656 -18.440  1.00  0.00     0.061 A 
HETATM   18  C   UNL     1      16.863   3.407 -20.335  1.00  0.00     0.002 A 
HETATM   19  C   UNL     1      15.645   3.712 -19.744  1.00  0.00     0.002 A 
HETATM   20  C   UNL     1      15.091   2.839 -18.806  1.00  0.00     0.032 A 
HETATM   21  N   UNL     1      15.072   0.784 -17.565  1.00  0.00    -0.336 N 
HETATM   22  C   UNL     1      15.615  -0.364 -17.282  1.00  0.00     0.180 C 
HETATM   23  HN  UNL     1      14.174   1.047 -17.160  1.00  0.00     0.168 HD
HETATM   24  C   UNL     1      17.061  -0.694 -17.685  1.00  0.00     0.293 C 
HETATM   25  O   UNL     1      17.628  -1.649 -17.160  1.00  0.00    -0.264 OA
BRANCH  22  26
HETATM   26  N   UNL     1      14.903  -1.317 -16.529  1.00  0.00    -0.295 N 
HETATM   27  C   UNL     1      14.715  -1.153 -15.156  1.00  0.00     0.221 C 
HETATM   28  O   UNL     1      15.308  -0.294 -14.497  1.00  0.00    -0.273 OA
HETATM   29  C   UNL     1      13.856  -2.153 -14.402  1.00  0.00     0.117 C 
BRANCH  26  30
HETATM   30  C   UNL     1      14.603  -2.589 -17.180  1.00  0.00     0.172 C 
BRANCH  30  31
HETATM   31  C   UNL     1      13.631  -2.517 -18.349  1.00  0.00    -0.040 A 
HETATM   32  C   UNL     1      12.369  -1.900 -18.288  1.00  0.00     0.012 A 
HETATM   33  C   UNL     1      11.572  -1.798 -19.435  1.00  0.00     0.043 A 
HETATM   34  C   UNL     1      12.030  -2.311 -20.643  1.00  0.00     0.116 A 
HETATM   35  C   UNL     1      13.256  -2.954 -20.721  1.00  0.00     0.043 A 
HETATM   36  F   UNL     1      11.284  -2.175 -21.747  1.00  0.00    -0.206 F 
HETATM   37  C   UNL     1      14.050  -3.064 -19.578  1.00  0.00     0.012 A 
ENDBRANCH  30  31
ENDBRANCH  26  30
ENDBRANCH  22  26
ENDBRANCH   2  14
TORSDOF 5
ENDMDL
MODEL 6
REMARK VINA RESULT:      -8.0      2.663      6.833
REMARK  5 active torsions:
REMARK  status: ('A' for Active; 'I' for Inactive)
REMARK    1  A    between atoms: C_2  and  C_3 
REMARK    2  A    between atoms: C_2  and  N_14 
REMARK       I    between atoms: C_3  and  N_5 
REMARK    3  A    between atoms: C_23  and  N_26 
REMARK    4  A    between atoms: N_26  and  C_27 
REMARK       I    between atoms: N_26  and  C_35 
REMARK    5  A    between atoms: C_27  and  C_28 
ROOT
HETATM    1  C   UNL     1      16.654  -4.083 -19.792  1.00  0.00     0.043 C 
HETATM    2  C   UNL     1      15.192  -4.547 -19.786  1.00  0.00     0.182 C 
ENDROOT
BRANCH   2   3
HETATM    3  C   UNL     1      15.003  -6.083 -19.943  1.00  0.00     0.247 C 
HETATM    4  O   UNL     1      14.941  -6.838 -18.965  1.00  0.00    -0.271 OA
HETATM    5  N   UNL     1      14.939  -6.625 -21.215  1.00  0.00    -0.315 N 
HETATM    6  C   UNL     1      15.109  -8.078 -21.388  1.00  0.00     0.137 A 
HETATM    7  C   UNL     1      14.595  -6.056 -22.456  1.00  0.00     0.043 A 
HETATM    8  C   UNL     1      14.993  -8.379 -22.883  1.00  0.00     0.061 A 
HETATM    9  C   UNL     1      14.623  -7.043 -23.444  1.00  0.00    -0.030 A 
HETATM   10  C   UNL     1      14.319  -6.755 -24.766  1.00  0.00     0.009 A 
HETATM   11  C   UNL     1      13.957  -5.449 -25.103  1.00  0.00     0.001 A 
HETATM   12  C   UNL     1      13.890  -4.465 -24.120  1.00  0.00     0.002 A 
HETATM   13  C   UNL     1      14.203  -4.766 -22.796  1.00  0.00     0.030 A 
ENDBRANCH   2   3
BRANCH   2  14
HETATM   14  N   UNL     1      14.442  -3.849 -18.732  1.00  0.00    -0.296 N 
HETATM   15  C   UNL     1      13.368  -2.967 -19.021  1.00  0.00     0.065 A 
HETATM   16  C   UNL     1      12.788  -2.871 -20.298  1.00  0.00     0.032 A 
HETATM   17  C   UNL     1      12.894  -2.139 -17.992  1.00  0.00     0.061 A 
HETATM   18  C   UNL     1      11.794  -1.934 -20.572  1.00  0.00     0.002 A 
HETATM   19  C   UNL     1      11.358  -1.086 -19.564  1.00  0.00     0.002 A 
HETATM   20  C   UNL     1      11.904  -1.192 -18.283  1.00  0.00     0.032 A 
HETATM   21  N   UNL     1      13.318  -2.248 -16.655  1.00  0.00    -0.336 N 
HETATM   22  C   UNL     1      14.168  -3.181 -16.341  1.00  0.00     0.180 C 
HETATM   23  HN  UNL     1      12.965  -1.607 -15.945  1.00  0.00     0.168 HD
HETATM   24  C   UNL     1      14.893  -4.009 -17.414  1.00  0.00     0.293 C 
HETATM   25  O   UNL     1      15.882  -4.665 -17.100  1.00  0.00    -0.264 OA
BRANCH  22  26
HETATM   26  N   UNL     1      14.501  -3.410 -14.991  1.00  0.00    -0.295 N 
HETATM   27  C   UNL     1      14.035  -4.540 -14.319  1.00  0.00     0.221 C 
HETATM   28  O   UNL     1      13.168  -5.287 -14.784  1.00  0.00    -0.273 OA
HETATM   29  C   UNL     1      14.500  -4.799 -12.897  1.00  0.00     0.117 C 
BRANCH  26  30
HETATM   30  C   UNL     1      15.122  -2.308 -14.263  1.00  0.00     0.172 C 
BRANCH  30  31
HETATM   31  C   UNL     1      16.610  -2.106 -14.518  1.00  0.00    -0.040 A 
HETATM   32  C   UNL     1      17.212  -0.852 -14.725  1.00  0.00     0.012 A 
HETATM   33  C   UNL     1      18.600  -0.745 -14.864  1.00  0.00     0.043 A 
HETATM   34  C   UNL     1      19.392  -1.886 -14.798  1.00  0.00     0.116 A 
HETATM   35  C   UNL     1      18.819  -3.138 -14.629  1.00  0.00     0.043 A 
HETATM   36  F   UNL     1      20.724  -1.776 -14.890  1.00  0.00    -0.206 F 
HETATM   37  C   UNL     1      17.434  -3.249 -14.497  1.00  0.00     0.012 A 
ENDBRANCH  30  31
ENDBRANCH  26  30
ENDBRANCH  22  26
ENDBRANCH   2  14
TORSDOF 5
ENDMDL
MODEL 7
REMARK VINA RESULT:      -7.9      2.598      7.020
REMARK  5 active torsions:
REMARK  status: ('A' for Active; 'I' for Inactive)
REMARK    1  A    between atoms: C_2  and  C_3 
REMARK    2  A    between atoms: C_2  and  N_14 
REMARK       I    between atoms: C_3  and  N_5 
REMARK    3  A    between atoms: C_23  and  N_26 
REMARK    4  A    between atoms: N_26  and  C_27 
REMARK       I    between atoms: N_26  and  C_35 
REMARK    5  A    between atoms: C_27  and  C_28 
ROOT
HETATM    1  C   UNL     1      12.566  -6.091 -17.531  1.00  0.00     0.043 C 
HETATM    2  C   UNL     1      13.803  -5.420 -18.141  1.00  0.00     0.182 C 
ENDROOT
BRANCH   2   3
HETATM    3  C   UNL     1      14.376  -6.140 -19.395  1.00  0.00     0.247 C 
HETATM    4  O   UNL     1      14.151  -5.737 -20.542  1.00  0.00    -0.271 OA
HETATM    5  N   UNL     1      15.129  -7.289 -19.224  1.00  0.00    -0.315 N 
HETATM    6  C   UNL     1      15.381  -8.166 -20.381  1.00  0.00     0.137 A 
HETATM    7  C   UNL     1      15.865  -7.768 -18.123  1.00  0.00     0.043 A 
HETATM    8  C   UNL     1      16.228  -9.341 -19.892  1.00  0.00     0.061 A 
HETATM    9  C   UNL     1      16.508  -8.957 -18.473  1.00  0.00    -0.030 A 
HETATM   10  C   UNL     1      17.308  -9.643 -17.572  1.00  0.00     0.009 A 
HETATM   11  C   UNL     1      17.487  -9.112 -16.293  1.00  0.00     0.001 A 
HETATM   12  C   UNL     1      16.880  -7.908 -15.944  1.00  0.00     0.002 A 
HETATM   13  C   UNL     1      16.074  -7.231 -16.856  1.00  0.00     0.030 A 
ENDBRANCH   2   3
BRANCH   2  14
HETATM   14  N   UNL     1      13.618  -3.962 -18.190  1.00  0.00    -0.296 N 
HETATM   15  C   UNL     1      12.576  -3.353 -18.938  1.00  0.00     0.065 A 
HETATM   16  C   UNL     1      11.512  -4.087 -19.492  1.00  0.00     0.032 A 
HETATM   17  C   UNL     1      12.636  -1.968 -19.154  1.00  0.00     0.061 A 
HETATM   18  C   UNL     1      10.552  -3.474 -20.294  1.00  0.00     0.002 A 
HETATM   19  C   UNL     1      10.639  -2.111 -20.544  1.00  0.00     0.002 A 
HETATM   20  C   UNL     1      11.674  -1.366 -19.973  1.00  0.00     0.032 A 
HETATM   21  N   UNL     1      13.584  -1.131 -18.538  1.00  0.00    -0.336 N 
HETATM   22  C   UNL     1      14.431  -1.652 -17.700  1.00  0.00     0.180 C 
HETATM   23  HN  UNL     1      13.606  -0.133 -18.745  1.00  0.00     0.168 HD
HETATM   24  C   UNL     1      14.578  -3.174 -17.540  1.00  0.00     0.293 C 
HETATM   25  O   UNL     1      15.567  -3.625 -16.969  1.00  0.00    -0.264 OA
BRANCH  22  26
HETATM   26  N   UNL     1      15.295  -0.822 -16.958  1.00  0.00    -0.295 N 
HETATM   27  C   UNL     1      15.049  -0.550 -15.613  1.00  0.00     0.221 C 
HETATM   28  O   UNL     1      13.988  -0.844 -15.052  1.00  0.00    -0.273 OA
HETATM   29  C   UNL     1      16.059   0.267 -14.826  1.00  0.00     0.117 C 
BRANCH  26  30
HETATM   30  C   UNL     1      16.292  -0.063 -17.707  1.00  0.00     0.172 C 
BRANCH  30  31
HETATM   31  C   UNL     1      17.400  -0.886 -18.351  1.00  0.00    -0.040 A 
HETATM   32  C   UNL     1      18.369  -1.605 -17.629  1.00  0.00     0.012 A 
HETATM   33  C   UNL     1      19.299  -2.409 -18.297  1.00  0.00     0.043 A 
HETATM   34  C   UNL     1      19.267  -2.500 -19.684  1.00  0.00     0.116 A 
HETATM   35  C   UNL     1      18.341  -1.774 -20.420  1.00  0.00     0.043 A 
HETATM   36  F   UNL     1      20.131  -3.303 -20.318  1.00  0.00    -0.206 F 
HETATM   37  C   UNL     1      17.417  -0.965 -19.758  1.00  0.00     0.012 A 
ENDBRANCH  30  31
ENDBRANCH  26  30
ENDBRANCH  22  26
ENDBRANCH   2  14
TORSDOF 5
ENDMDL
MODEL 8
REMARK VINA RESULT:      -7.9      2.881      5.928
REMARK  5 active torsions:
REMARK  status: ('A' for Active; 'I' for Inactive)
REMARK    1  A    between atoms: C_2  and  C_3 
REMARK    2  A    between atoms: C_2  and  N_14 
REMARK       I    between atoms: C_3  and  N_5 
REMARK    3  A    between atoms: C_23  and  N_26 
REMARK    4  A    between atoms: N_26  and  C_27 
REMARK       I    between atoms: N_26  and  C_35 
REMARK    5  A    between atoms: C_27  and  C_28 
ROOT
HETATM    1  C   UNL     1      14.146  -3.831 -22.012  1.00  0.00     0.043 C 
HETATM    2  C   UNL     1      13.445  -3.750 -20.650  1.00  0.00     0.182 C 
ENDROOT
BRANCH   2   3
HETATM    3  C   UNL     1      12.310  -2.690 -20.570  1.00  0.00     0.247 C 
HETATM    4  O   UNL     1      11.479  -2.551 -21.476  1.00  0.00    -0.271 OA
HETATM    5  N   UNL     1      12.249  -1.852 -19.470  1.00  0.00    -0.315 N 
HETATM    6  C   UNL     1      11.418  -0.637 -19.534  1.00  0.00     0.137 A 
HETATM    7  C   UNL     1      12.753  -1.989 -18.163  1.00  0.00     0.043 A 
HETATM    8  C   UNL     1      11.549   0.081 -18.191  1.00  0.00     0.061 A 
HETATM    9  C   UNL     1      12.371  -0.885 -17.398  1.00  0.00    -0.030 A 
HETATM   10  C   UNL     1      12.731  -0.766 -16.064  1.00  0.00     0.009 A 
HETATM   11  C   UNL     1      13.475  -1.791 -15.475  1.00  0.00     0.001 A 
HETATM   12  C   UNL     1      13.831  -2.914 -16.218  1.00  0.00     0.002 A 
HETATM   13  C   UNL     1      13.467  -3.019 -17.559  1.00  0.00     0.030 A 
ENDBRANCH   2   3
BRANCH   2  14
HETATM   14  N   UNL     1      13.185  -5.101 -20.132  1.00  0.00    -0.296 N 
HETATM   15  C   UNL     1      11.897  -5.696 -20.176  1.00  0.00     0.065 A 
HETATM   16  C   UNL     1      10.834  -5.150 -20.916  1.00  0.00     0.032 A 
HETATM   17  C   UNL     1      11.677  -6.858 -19.420  1.00  0.00     0.061 A 
HETATM   18  C   UNL     1       9.559  -5.709 -20.869  1.00  0.00     0.002 A 
HETATM   19  C   UNL     1       9.333  -6.832 -20.086  1.00  0.00     0.002 A 
HETATM   20  C   UNL     1      10.388  -7.402 -19.370  1.00  0.00     0.032 A 
HETATM   21  N   UNL     1      12.703  -7.550 -18.752  1.00  0.00    -0.336 N 
HETATM   22  C   UNL     1      13.925  -7.118 -18.859  1.00  0.00     0.180 C 
HETATM   23  HN  UNL     1      12.492  -8.377 -18.193  1.00  0.00     0.168 HD
HETATM   24  C   UNL     1      14.248  -5.756 -19.495  1.00  0.00     0.293 C 
HETATM   25  O   UNL     1      15.358  -5.260 -19.320  1.00  0.00    -0.264 OA
BRANCH  22  26
HETATM   26  N   UNL     1      14.991  -7.868 -18.324  1.00  0.00    -0.295 N 
HETATM   27  C   UNL     1      15.965  -8.425 -19.154  1.00  0.00     0.221 C 
HETATM   28  O   UNL     1      15.854  -8.465 -20.384  1.00  0.00    -0.273 OA
HETATM   29  C   UNL     1      17.150  -9.139 -18.529  1.00  0.00     0.117 C 
BRANCH  26  30
HETATM   30  C   UNL     1      14.893  -8.255 -16.920  1.00  0.00     0.172 C 
BRANCH  30  31
HETATM   31  C   UNL     1      14.920  -7.108 -15.918  1.00  0.00    -0.040 A 
HETATM   32  C   UNL     1      13.815  -6.713 -15.143  1.00  0.00     0.012 A 
HETATM   33  C   UNL     1      13.947  -5.706 -14.180  1.00  0.00     0.043 A 
HETATM   34  C   UNL     1      15.178  -5.090 -13.987  1.00  0.00     0.116 A 
HETATM   35  C   UNL     1      16.274  -5.438 -14.763  1.00  0.00     0.043 A 
HETATM   36  F   UNL     1      15.312  -4.156 -13.037  1.00  0.00    -0.206 F 
HETATM   37  C   UNL     1      16.144  -6.437 -15.729  1.00  0.00     0.012 A 
ENDBRANCH  30  31
ENDBRANCH  26  30
ENDBRANCH  22  26
ENDBRANCH   2  14
TORSDOF 5
ENDMDL
MODEL 9
REMARK VINA RESULT:      -7.9      2.170      5.604
REMARK  5 active torsions:
REMARK  status: ('A' for Active; 'I' for Inactive)
REMARK    1  A    between atoms: C_2  and  C_3 
REMARK    2  A    between atoms: C_2  and  N_14 
REMARK       I    between atoms: C_3  and  N_5 
REMARK    3  A    between atoms: C_23  and  N_26 
REMARK    4  A    between atoms: N_26  and  C_27 
REMARK       I    between atoms: N_26  and  C_35 
REMARK    5  A    between atoms: C_27  and  C_28 
ROOT
HETATM    1  C   UNL     1      17.553  -4.074 -15.727  1.00  0.00     0.043 C 
HETATM    2  C   UNL     1      16.809  -4.725 -16.900  1.00  0.00     0.182 C 
ENDROOT
BRANCH   2   3
HETATM    3  C   UNL     1      15.769  -5.804 -16.485  1.00  0.00     0.247 C 
HETATM    4  O   UNL     1      15.172  -5.756 -15.402  1.00  0.00    -0.271 OA
HETATM    5  N   UNL     1      15.530  -6.870 -17.335  1.00  0.00    -0.315 N 
HETATM    6  C   UNL     1      14.828  -8.059 -16.822  1.00  0.00     0.137 A 
HETATM    7  C   UNL     1      15.720  -7.017 -18.722  1.00  0.00     0.043 A 
HETATM    8  C   UNL     1      14.714  -9.058 -17.974  1.00  0.00     0.061 A 
HETATM    9  C   UNL     1      15.264  -8.275 -19.124  1.00  0.00    -0.030 A 
HETATM   10  C   UNL     1      15.328  -8.683 -20.448  1.00  0.00     0.009 A 
HETATM   11  C   UNL     1      15.843  -7.798 -21.398  1.00  0.00     0.001 A 
HETATM   12  C   UNL     1      16.267  -6.528 -21.016  1.00  0.00     0.002 A 
HETATM   13  C   UNL     1      16.202  -6.133 -19.682  1.00  0.00     0.030 A 
ENDBRANCH   2   3
BRANCH   2  14
HETATM   14  N   UNL     1      16.412  -3.702 -17.879  1.00  0.00    -0.296 N 
HETATM   15  C   UNL     1      17.338  -3.109 -18.776  1.00  0.00     0.065 A 
HETATM   16  C   UNL     1      18.640  -3.607 -18.962  1.00  0.00     0.032 A 
HETATM   17  C   UNL     1      16.940  -1.960 -19.476  1.00  0.00     0.061 A 
HETATM   18  C   UNL     1      19.554  -2.952 -19.783  1.00  0.00     0.002 A 
HETATM   19  C   UNL     1      19.172  -1.790 -20.440  1.00  0.00     0.002 A 
HETATM   20  C   UNL     1      17.873  -1.302 -20.287  1.00  0.00     0.032 A 
HETATM   21  N   UNL     1      15.626  -1.460 -19.457  1.00  0.00    -0.336 N 
HETATM   22  C   UNL     1      14.719  -2.106 -18.785  1.00  0.00     0.180 C 
HETATM   23  HN  UNL     1      15.388  -0.606 -19.961  1.00  0.00     0.168 HD
HETATM   24  C   UNL     1      15.084  -3.255 -17.832  1.00  0.00     0.293 C 
HETATM   25  O   UNL     1      14.256  -3.641 -17.011  1.00  0.00    -0.264 OA
BRANCH  22  26
HETATM   26  N   UNL     1      13.368  -1.715 -18.863  1.00  0.00    -0.295 N 
HETATM   27  C   UNL     1      12.931  -0.521 -18.290  1.00  0.00     0.221 C 
HETATM   28  O   UNL     1      13.633   0.154 -17.530  1.00  0.00    -0.273 OA
HETATM   29  C   UNL     1      11.488  -0.090 -18.486  1.00  0.00     0.117 C 
BRANCH  26  30
HETATM   30  C   UNL     1      12.412  -2.716 -19.331  1.00  0.00     0.172 C 
BRANCH  30  31
HETATM   31  C   UNL     1      12.521  -3.093 -20.802  1.00  0.00    -0.040 A 
HETATM   32  C   UNL     1      13.663  -3.669 -21.385  1.00  0.00     0.012 A 
HETATM   33  C   UNL     1      13.651  -4.070 -22.726  1.00  0.00     0.043 A 
HETATM   34  C   UNL     1      12.502  -3.896 -23.489  1.00  0.00     0.116 A 
HETATM   35  C   UNL     1      11.373  -3.299 -22.946  1.00  0.00     0.043 A 
HETATM   36  F   UNL     1      12.478  -4.318 -24.760  1.00  0.00    -0.206 F 
HETATM   37  C   UNL     1      11.385  -2.893 -21.611  1.00  0.00     0.012 A 
ENDBRANCH  30  31
ENDBRANCH  26  30
ENDBRANCH  22  26
ENDBRANCH   2  14
TORSDOF 5
ENDMDL
