MODEL 1
REMARK VINA RESULT:      -7.7      0.000      0.000
REMARK  2 active torsions:
REMARK  status: ('A' for Active; 'I' for Inactive)
REMARK    1  A    between atoms: N_19  and  C_20 
REMARK    2  A    between atoms: C_20  and  C_21 
ROOT
HETATM    1  C   UNL     1      21.238  -1.771 -21.645  1.00  0.00     0.001 A 
HETATM    2  C   UNL     1      20.306  -0.835 -22.123  1.00  0.00     0.001 A 
HETATM    3  C   UNL     1      19.012  -0.767 -21.593  1.00  0.00     0.008 A 
HETATM    4  C   UNL     1      18.664  -1.646 -20.577  1.00  0.00    -0.042 A 
HETATM    5  C   UNL     1      19.608  -2.610 -20.116  1.00  0.00    -0.042 A 
HETATM    6  C   UNL     1      20.893  -2.668 -20.637  1.00  0.00     0.008 A 
HETATM    7  C   UNL     1      19.058  -3.529 -19.025  1.00  0.00     0.066 C 
HETATM    8  C   UNL     1      17.764  -4.138 -19.569  1.00  0.00    -0.042 A 
HETATM    9  C   UNL     1      17.495  -5.496 -19.675  1.00  0.00     0.008 A 
HETATM   10  C   UNL     1      16.301  -5.896 -20.279  1.00  0.00     0.001 A 
HETATM   11  C   UNL     1      15.394  -4.949 -20.776  1.00  0.00     0.001 A 
HETATM   12  C   UNL     1      15.653  -3.582 -20.658  1.00  0.00     0.008 A 
HETATM   13  C   UNL     1      16.830  -3.179 -20.041  1.00  0.00    -0.042 A 
HETATM   14  C   UNL     1      17.299  -1.737 -19.865  1.00  0.00     0.066 C 
HETATM   15  C   UNL     1      17.625  -1.528 -18.357  1.00  0.00     0.105 C 
HETATM   16  C   UNL     1      18.693  -2.550 -17.891  1.00  0.00     0.105 C 
HETATM   17  C   UNL     1      18.069  -3.242 -16.725  1.00  0.00     0.232 C 
HETATM   18  O   UNL     1      18.523  -4.250 -16.203  1.00  0.00    -0.272 OA
HETATM   19  N   UNL     1      16.934  -2.570 -16.367  1.00  0.00    -0.283 N 
HETATM   20  C   UNL     1      16.496  -1.742 -17.370  1.00  0.00     0.232 C 
HETATM   21  O   UNL     1      15.389  -1.230 -17.464  1.00  0.00    -0.272 OA
ENDROOT
BRANCH  19  22
HETATM   22  C   UNL     1      16.123  -2.992 -15.235  1.00  0.00     0.174 C 
BRANCH  22  23
HETATM   23  C   UNL     1      15.419  -4.311 -15.468  1.00  0.00    -0.024 A 
HETATM   24  C   UNL     1      14.857  -4.642 -16.704  1.00  0.00     0.011 A 
HETATM   25  C   UNL     1      14.242  -5.884 -16.883  1.00  0.00     0.018 A 
HETATM   26  C   UNL     1      14.195  -6.758 -15.812  1.00  0.00     0.087 A 
HETATM   27  N   UNL     1      14.715  -6.475 -14.602  1.00  0.00    -0.375 N 
HETATM   28  C   UNL     1      15.316  -5.269 -14.458  1.00  0.00     0.096 A 
HETATM   29  HN  UNL     1      14.659  -7.138 -13.829  1.00  0.00     0.164 HD
ENDBRANCH  22  23
ENDBRANCH  19  22
TORSDOF 2
ENDMDL
MODEL 2
REMARK VINA RESULT:      -7.6      1.038      1.144
REMARK  2 active torsions:
REMARK  status: ('A' for Active; 'I' for Inactive)
REMARK    1  A    between atoms: N_19  and  C_20 
REMARK    2  A    between atoms: C_20  and  C_21 
ROOT
HETATM    1  C   UNL     1      21.744  -2.088 -21.865  1.00  0.00     0.001 A 
HETATM    2  C   UNL     1      20.910  -1.188 -22.547  1.00  0.00     0.001 A 
HETATM    3  C   UNL     1      19.628  -0.885 -22.070  1.00  0.00     0.008 A 
HETATM    4  C   UNL     1      19.195  -1.493 -20.900  1.00  0.00    -0.042 A 
HETATM    5  C   UNL     1      20.039  -2.426 -20.227  1.00  0.00    -0.042 A 
HETATM    6  C   UNL     1      21.312  -2.716 -20.699  1.00  0.00     0.008 A 
HETATM    7  C   UNL     1      19.400  -3.037 -18.980  1.00  0.00     0.066 C 
HETATM    8  C   UNL     1      18.052  -3.619 -19.413  1.00  0.00    -0.042 A 
HETATM    9  C   UNL     1      17.650  -4.935 -19.238  1.00  0.00     0.008 A 
HETATM   10  C   UNL     1      16.423  -5.336 -19.769  1.00  0.00     0.001 A 
HETATM   11  C   UNL     1      15.614  -4.431 -20.473  1.00  0.00     0.001 A 
HETATM   12  C   UNL     1      16.007  -3.102 -20.637  1.00  0.00     0.008 A 
HETATM   13  C   UNL     1      17.218  -2.694 -20.093  1.00  0.00    -0.042 A 
HETATM   14  C   UNL     1      17.828  -1.299 -20.214  1.00  0.00     0.066 C 
HETATM   15  C   UNL     1      18.173  -0.811 -18.776  1.00  0.00     0.105 C 
HETATM   16  C   UNL     1      19.134  -1.811 -18.085  1.00  0.00     0.105 C 
HETATM   17  C   UNL     1      18.444  -2.179 -16.813  1.00  0.00     0.232 C 
HETATM   18  O   UNL     1      18.796  -3.093 -16.082  1.00  0.00    -0.272 OA
HETATM   19  N   UNL     1      17.381  -1.340 -16.627  1.00  0.00    -0.283 N 
HETATM   20  C   UNL     1      17.028  -0.703 -17.790  1.00  0.00     0.232 C 
HETATM   21  O   UNL     1      15.977  -0.117 -18.012  1.00  0.00    -0.272 OA
ENDROOT
BRANCH  19  22
HETATM   22  C   UNL     1      16.533  -1.433 -15.449  1.00  0.00     0.174 C 
BRANCH  22  23
HETATM   23  C   UNL     1      15.681  -2.685 -15.430  1.00  0.00    -0.024 A 
HETATM   24  C   UNL     1      15.088  -3.195 -16.587  1.00  0.00     0.011 A 
HETATM   25  C   UNL     1      14.334  -4.369 -16.528  1.00  0.00     0.018 A 
HETATM   26  C   UNL     1      14.182  -4.996 -15.304  1.00  0.00     0.087 A 
HETATM   27  N   UNL     1      14.728  -4.534 -14.163  1.00  0.00    -0.375 N 
HETATM   28  C   UNL     1      15.465  -3.399 -14.250  1.00  0.00     0.096 A 
HETATM   29  HN  UNL     1      14.594  -5.014 -13.274  1.00  0.00     0.164 HD
ENDBRANCH  22  23
ENDBRANCH  19  22
TORSDOF 2
ENDMDL
MODEL 3
REMARK VINA RESULT:      -7.5      2.823      5.511
REMARK  2 active torsions:
REMARK  status: ('A' for Active; 'I' for Inactive)
REMARK    1  A    between atoms: N_19  and  C_20 
REMARK    2  A    between atoms: C_20  and  C_21 
ROOT
HETATM    1  C   UNL     1      14.032  -5.197 -25.335  1.00  0.00     0.001 A 
HETATM    2  C   UNL     1      14.591  -6.481 -25.241  1.00  0.00     0.001 A 
HETATM    3  C   UNL     1      14.862  -7.063 -23.996  1.00  0.00     0.008 A 
HETATM    4  C   UNL     1      14.565  -6.343 -22.849  1.00  0.00    -0.042 A 
HETATM    5  C   UNL     1      14.021  -5.028 -22.954  1.00  0.00    -0.042 A 
HETATM    6  C   UNL     1      13.745  -4.459 -24.189  1.00  0.00     0.008 A 
HETATM    7  C   UNL     1      13.788  -4.355 -21.601  1.00  0.00     0.066 C 
HETATM    8  C   UNL     1      15.115  -4.419 -20.840  1.00  0.00    -0.042 A 
HETATM    9  C   UNL     1      15.798  -3.329 -20.320  1.00  0.00     0.008 A 
HETATM   10  C   UNL     1      17.045  -3.541 -19.729  1.00  0.00     0.001 A 
HETATM   11  C   UNL     1      17.602  -4.827 -19.668  1.00  0.00     0.001 A 
HETATM   12  C   UNL     1      16.911  -5.929 -20.176  1.00  0.00     0.008 A 
HETATM   13  C   UNL     1      15.662  -5.725 -20.747  1.00  0.00    -0.042 A 
HETATM   14  C   UNL     1      14.787  -6.798 -21.392  1.00  0.00     0.066 C 
HETATM   15  C   UNL     1      13.379  -6.717 -20.733  1.00  0.00     0.105 C 
HETATM   16  C   UNL     1      12.784  -5.296 -20.907  1.00  0.00     0.105 C 
HETATM   17  C   UNL     1      12.459  -4.851 -19.520  1.00  0.00     0.232 C 
HETATM   18  O   UNL     1      12.148  -3.707 -19.222  1.00  0.00    -0.272 OA
HETATM   19  N   UNL     1      12.573  -5.919 -18.674  1.00  0.00    -0.283 N 
HETATM   20  C   UNL     1      13.304  -6.935 -19.236  1.00  0.00     0.232 C 
HETATM   21  O   UNL     1      13.806  -7.885 -18.649  1.00  0.00    -0.272 OA
ENDROOT
BRANCH  19  22
HETATM   22  C   UNL     1      12.283  -5.801 -17.253  1.00  0.00     0.174 C 
BRANCH  22  23
HETATM   23  C   UNL     1      13.526  -5.631 -16.406  1.00  0.00    -0.024 A 
HETATM   24  C   UNL     1      14.528  -4.715 -16.737  1.00  0.00     0.011 A 
HETATM   25  C   UNL     1      15.644  -4.570 -15.910  1.00  0.00     0.018 A 
HETATM   26  C   UNL     1      15.735  -5.360 -14.777  1.00  0.00     0.087 A 
HETATM   27  N   UNL     1      14.798  -6.262 -14.427  1.00  0.00    -0.375 N 
HETATM   28  C   UNL     1      13.719  -6.374 -15.240  1.00  0.00     0.096 A 
HETATM   29  HN  UNL     1      14.895  -6.834 -13.589  1.00  0.00     0.164 HD
ENDBRANCH  22  23
ENDBRANCH  19  22
TORSDOF 2
ENDMDL
MODEL 4
REMARK VINA RESULT:      -7.4      4.282      6.941
REMARK  2 active torsions:
REMARK  status: ('A' for Active; 'I' for Inactive)
REMARK    1  A    between atoms: N_19  and  C_20 
REMARK    2  A    between atoms: C_20  and  C_21 
ROOT
HETATM    1  C   UNL     1       7.844  -3.855 -21.423  1.00  0.00     0.001 A 
HETATM    2  C   UNL     1       7.721  -5.253 -21.355  1.00  0.00     0.001 A 
HETATM    3  C   UNL     1       8.797  -6.055 -20.953  1.00  0.00     0.008 A 
HETATM    4  C   UNL     1       9.994  -5.439 -20.619  1.00  0.00    -0.042 A 
HETATM    5  C   UNL     1      10.118  -4.022 -20.716  1.00  0.00    -0.042 A 
HETATM    6  C   UNL     1       9.047  -3.230 -21.105  1.00  0.00     0.008 A 
HETATM    7  C   UNL     1      11.510  -3.505 -20.353  1.00  0.00     0.066 C 
HETATM    8  C   UNL     1      12.509  -4.276 -21.220  1.00  0.00    -0.042 A 
HETATM    9  C   UNL     1      13.440  -3.706 -22.077  1.00  0.00     0.008 A 
HETATM   10  C   UNL     1      14.222  -4.548 -22.870  1.00  0.00     0.001 A 
HETATM   11  C   UNL     1      14.067  -5.940 -22.810  1.00  0.00     0.001 A 
HETATM   12  C   UNL     1      13.143  -6.519 -21.938  1.00  0.00     0.008 A 
HETATM   13  C   UNL     1      12.377  -5.686 -21.133  1.00  0.00    -0.042 A 
HETATM   14  C   UNL     1      11.291  -6.137 -20.159  1.00  0.00     0.066 C 
HETATM   15  C   UNL     1      11.609  -5.504 -18.773  1.00  0.00     0.105 C 
HETATM   16  C   UNL     1      11.685  -3.960 -18.891  1.00  0.00     0.105 C 
HETATM   17  C   UNL     1      13.028  -3.605 -18.345  1.00  0.00     0.232 C 
HETATM   18  O   UNL     1      13.538  -2.498 -18.443  1.00  0.00    -0.272 OA
HETATM   19  N   UNL     1      13.566  -4.707 -17.741  1.00  0.00    -0.283 N 
HETATM   20  C   UNL     1      12.938  -5.861 -18.139  1.00  0.00     0.232 C 
HETATM   21  O   UNL     1      13.352  -7.004 -17.998  1.00  0.00    -0.272 OA
ENDROOT
BRANCH  19  22
HETATM   22  C   UNL     1      14.863  -4.660 -17.084  1.00  0.00     0.174 C 
BRANCH  22  23
HETATM   23  C   UNL     1      14.763  -4.637 -15.573  1.00  0.00    -0.024 A 
HETATM   24  C   UNL     1      14.539  -3.454 -14.865  1.00  0.00     0.011 A 
HETATM   25  C   UNL     1      14.424  -3.483 -13.473  1.00  0.00     0.018 A 
HETATM   26  C   UNL     1      14.550  -4.699 -12.825  1.00  0.00     0.087 A 
HETATM   27  N   UNL     1      14.776  -5.861 -13.468  1.00  0.00    -0.375 N 
HETATM   28  C   UNL     1      14.872  -5.806 -14.819  1.00  0.00     0.096 A 
HETATM   29  HN  UNL     1      14.871  -6.741 -12.963  1.00  0.00     0.164 HD
ENDBRANCH  22  23
ENDBRANCH  19  22
TORSDOF 2
ENDMDL
MODEL 5
REMARK VINA RESULT:      -7.4      3.496      4.928
REMARK  2 active torsions:
REMARK  status: ('A' for Active; 'I' for Inactive)
REMARK    1  A    between atoms: N_19  and  C_20 
REMARK    2  A    between atoms: C_20  and  C_21 
ROOT
HETATM    1  C   UNL     1      13.609  -4.474 -24.259  1.00  0.00     0.001 A 
HETATM    2  C   UNL     1      12.276  -4.040 -24.168  1.00  0.00     0.001 A 
HETATM    3  C   UNL     1      11.727  -3.641 -22.942  1.00  0.00     0.008 A 
HETATM    4  C   UNL     1      12.530  -3.682 -21.812  1.00  0.00    -0.042 A 
HETATM    5  C   UNL     1      13.875  -4.148 -21.909  1.00  0.00    -0.042 A 
HETATM    6  C   UNL     1      14.418  -4.533 -23.127  1.00  0.00     0.008 A 
HETATM    7  C   UNL     1      14.611  -4.169 -20.569  1.00  0.00     0.066 C 
HETATM    8  C   UNL     1      13.744  -4.975 -19.599  1.00  0.00    -0.042 A 
HETATM    9  C   UNL     1      14.156  -6.093 -18.888  1.00  0.00     0.008 A 
HETATM   10  C   UNL     1      13.217  -6.774 -18.110  1.00  0.00     0.001 A 
HETATM   11  C   UNL     1      11.884  -6.344 -18.052  1.00  0.00     0.001 A 
HETATM   12  C   UNL     1      11.468  -5.210 -18.753  1.00  0.00     0.008 A 
HETATM   13  C   UNL     1      12.403  -4.518 -19.513  1.00  0.00    -0.042 A 
HETATM   14  C   UNL     1      12.120  -3.292 -20.377  1.00  0.00     0.066 C 
HETATM   15  C   UNL     1      13.132  -2.182 -19.965  1.00  0.00     0.105 C 
HETATM   16  C   UNL     1      14.587  -2.692 -20.131  1.00  0.00     0.105 C 
HETATM   17  C   UNL     1      15.212  -2.490 -18.790  1.00  0.00     0.232 C 
HETATM   18  O   UNL     1      16.298  -2.946 -18.464  1.00  0.00    -0.272 OA
HETATM   19  N   UNL     1      14.374  -1.732 -18.020  1.00  0.00    -0.283 N 
HETATM   20  C   UNL     1      13.097  -1.717 -18.523  1.00  0.00     0.232 C 
HETATM   21  O   UNL     1      12.083  -1.369 -17.933  1.00  0.00    -0.272 OA
ENDROOT
BRANCH  19  22
HETATM   22  C   UNL     1      14.730  -1.340 -16.666  1.00  0.00     0.174 C 
BRANCH  22  23
HETATM   23  C   UNL     1      14.213  -2.299 -15.614  1.00  0.00    -0.024 A 
HETATM   24  C   UNL     1      13.981  -3.648 -15.894  1.00  0.00     0.011 A 
HETATM   25  C   UNL     1      13.533  -4.505 -14.886  1.00  0.00     0.018 A 
HETATM   26  C   UNL     1      13.315  -3.982 -13.623  1.00  0.00     0.087 A 
HETATM   27  N   UNL     1      13.516  -2.686 -13.314  1.00  0.00    -0.375 N 
HETATM   28  C   UNL     1      13.962  -1.879 -14.307  1.00  0.00     0.096 A 
HETATM   29  HN  UNL     1      13.340  -2.328 -12.375  1.00  0.00     0.164 HD
ENDBRANCH  22  23
ENDBRANCH  19  22
TORSDOF 2
ENDMDL
MODEL 6
REMARK VINA RESULT:      -7.4      3.041      4.709
REMARK  2 active torsions:
REMARK  status: ('A' for Active; 'I' for Inactive)
REMARK    1  A    between atoms: N_19  and  C_20 
REMARK    2  A    between atoms: C_20  and  C_21 
ROOT
HETATM    1  C   UNL     1      14.570  -6.588 -24.912  1.00  0.00     0.001 A 
HETATM    2  C   UNL     1      13.983  -5.331 -25.127  1.00  0.00     0.001 A 
HETATM    3  C   UNL     1      13.718  -4.464 -24.060  1.00  0.00     0.008 A 
HETATM    4  C   UNL     1      14.049  -4.872 -22.776  1.00  0.00    -0.042 A 
HETATM    5  C   UNL     1      14.622  -6.161 -22.564  1.00  0.00    -0.042 A 
HETATM    6  C   UNL     1      14.892  -7.013 -23.625  1.00  0.00     0.008 A 
HETATM    7  C   UNL     1      14.891  -6.474 -21.092  1.00  0.00     0.066 C 
HETATM    8  C   UNL     1      13.575  -6.248 -20.343  1.00  0.00    -0.042 A 
HETATM    9  C   UNL     1      12.925  -7.187 -19.555  1.00  0.00     0.008 A 
HETATM   10  C   UNL     1      11.683  -6.858 -19.009  1.00  0.00     0.001 A 
HETATM   11  C   UNL     1      11.098  -5.608 -19.257  1.00  0.00     0.001 A 
HETATM   12  C   UNL     1      11.755  -4.654 -20.036  1.00  0.00     0.008 A 
HETATM   13  C   UNL     1      12.999  -4.970 -20.565  1.00  0.00    -0.042 A 
HETATM   14  C   UNL     1      13.839  -4.074 -21.473  1.00  0.00     0.066 C 
HETATM   15  C   UNL     1      15.258  -3.963 -20.843  1.00  0.00     0.105 C 
HETATM   16  C   UNL     1      15.883  -5.371 -20.673  1.00  0.00     0.105 C 
HETATM   17  C   UNL     1      16.240  -5.452 -19.226  1.00  0.00     0.232 C 
HETATM   18  O   UNL     1      16.582  -6.481 -18.661  1.00  0.00    -0.272 OA
HETATM   19  N   UNL     1      16.115  -4.211 -18.668  1.00  0.00    -0.283 N 
HETATM   20  C   UNL     1      15.351  -3.379 -19.449  1.00  0.00     0.232 C 
HETATM   21  O   UNL     1      14.837  -2.323 -19.105  1.00  0.00    -0.272 OA
ENDROOT
BRANCH  19  22
HETATM   22  C   UNL     1      16.429  -3.968 -17.269  1.00  0.00     0.174 C 
BRANCH  22  23
HETATM   23  C   UNL     1      15.472  -4.655 -16.318  1.00  0.00    -0.024 A 
HETATM   24  C   UNL     1      14.091  -4.657 -16.530  1.00  0.00     0.011 A 
HETATM   25  C   UNL     1      13.248  -5.329 -15.642  1.00  0.00     0.018 A 
HETATM   26  C   UNL     1      13.811  -5.972 -14.554  1.00  0.00     0.087 A 
HETATM   27  N   UNL     1      15.135  -5.986 -14.307  1.00  0.00    -0.375 N 
HETATM   28  C   UNL     1      15.932  -5.337 -15.190  1.00  0.00     0.096 A 
HETATM   29  HN  UNL     1      15.521  -6.464 -13.493  1.00  0.00     0.164 HD
ENDBRANCH  22  23
ENDBRANCH  19  22
TORSDOF 2
ENDMDL
MODEL 7
REMARK VINA RESULT:      -7.4      3.388      6.299
REMARK  2 active torsions:
REMARK  status: ('A' for Active; 'I' for Inactive)
REMARK    1  A    between atoms: N_19  and  C_20 
REMARK    2  A    between atoms: C_20  and  C_21 
ROOT
HETATM    1  C   UNL     1      13.892 -10.884 -19.130  1.00  0.00     0.001 A 
HETATM    2  C   UNL     1      15.273 -10.954 -19.372  1.00  0.00     0.001 A 
HETATM    3  C   UNL     1      16.139  -9.950 -18.919  1.00  0.00     0.008 A 
HETATM    4  C   UNL     1      15.603  -8.879 -18.219  1.00  0.00    -0.042 A 
HETATM    5  C   UNL     1      14.196  -8.803 -17.999  1.00  0.00    -0.042 A 
HETATM    6  C   UNL     1      13.343  -9.804 -18.442  1.00  0.00     0.008 A 
HETATM    7  C   UNL     1      13.763  -7.543 -17.250  1.00  0.00     0.066 C 
HETATM    8  C   UNL     1      14.336  -6.350 -18.019  1.00  0.00    -0.042 A 
HETATM    9  C   UNL     1      13.600  -5.288 -18.523  1.00  0.00     0.008 A 
HETATM   10  C   UNL     1      14.258  -4.319 -19.283  1.00  0.00     0.001 A 
HETATM   11  C   UNL     1      15.633  -4.418 -19.539  1.00  0.00     0.001 A 
HETATM   12  C   UNL     1      16.381  -5.477 -19.020  1.00  0.00     0.008 A 
HETATM   13  C   UNL     1      15.734  -6.433 -18.248  1.00  0.00    -0.042 A 
HETATM   14  C   UNL     1      16.378  -7.677 -17.641  1.00  0.00     0.066 C 
HETATM   15  C   UNL     1      16.044  -7.686 -16.120  1.00  0.00     0.105 C 
HETATM   16  C   UNL     1      14.509  -7.659 -15.906  1.00  0.00     0.105 C 
HETATM   17  C   UNL     1      14.273  -6.477 -15.025  1.00  0.00     0.232 C 
HETATM   18  O   UNL     1      13.168  -6.010 -14.787  1.00  0.00    -0.272 OA
HETATM   19  N   UNL     1      15.474  -6.028 -14.554  1.00  0.00    -0.283 N 
HETATM   20  C   UNL     1      16.522  -6.504 -15.302  1.00  0.00     0.232 C 
HETATM   21  O   UNL     1      17.669  -6.077 -15.308  1.00  0.00    -0.272 OA
ENDROOT
BRANCH  19  22
HETATM   22  C   UNL     1      15.562  -4.901 -13.638  1.00  0.00     0.174 C 
BRANCH  22  23
HETATM   23  C   UNL     1      15.079  -3.602 -14.247  1.00  0.00    -0.024 A 
HETATM   24  C   UNL     1      15.444  -3.210 -15.538  1.00  0.00     0.011 A 
HETATM   25  C   UNL     1      14.951  -2.017 -16.072  1.00  0.00     0.018 A 
HETATM   26  C   UNL     1      14.114  -1.239 -15.290  1.00  0.00     0.087 A 
HETATM   27  N   UNL     1      13.747  -1.575 -14.039  1.00  0.00    -0.375 N 
HETATM   28  C   UNL     1      14.229  -2.743 -13.549  1.00  0.00     0.096 A 
HETATM   29  HN  UNL     1      13.134  -0.977 -13.484  1.00  0.00     0.164 HD
ENDBRANCH  22  23
ENDBRANCH  19  22
TORSDOF 2
ENDMDL
MODEL 8
REMARK VINA RESULT:      -7.3      2.961      4.957
REMARK  2 active torsions:
REMARK  status: ('A' for Active; 'I' for Inactive)
REMARK    1  A    between atoms: N_19  and  C_20 
REMARK    2  A    between atoms: C_20  and  C_21 
ROOT
HETATM    1  C   UNL     1      16.078   3.408 -19.647  1.00  0.00     0.001 A 
HETATM    2  C   UNL     1      17.170   2.725 -20.207  1.00  0.00     0.001 A 
HETATM    3  C   UNL     1      17.446   1.396 -19.862  1.00  0.00     0.008 A 
HETATM    4  C   UNL     1      16.615   0.761 -18.951  1.00  0.00    -0.042 A 
HETATM    5  C   UNL     1      15.524   1.471 -18.367  1.00  0.00    -0.042 A 
HETATM    6  C   UNL     1      15.248   2.784 -18.719  1.00  0.00     0.008 A 
HETATM    7  C   UNL     1      14.731   0.644 -17.354  1.00  0.00     0.066 C 
HETATM    8  C   UNL     1      15.739   0.107 -16.335  1.00  0.00    -0.042 A 
HETATM    9  C   UNL     1      15.677   0.301 -14.962  1.00  0.00     0.008 A 
HETATM   10  C   UNL     1      16.724  -0.177 -14.171  1.00  0.00     0.001 A 
HETATM   11  C   UNL     1      17.820  -0.833 -14.750  1.00  0.00     0.001 A 
HETATM   12  C   UNL     1      17.879  -1.044 -16.129  1.00  0.00     0.008 A 
HETATM   13  C   UNL     1      16.830  -0.588 -16.917  1.00  0.00    -0.042 A 
HETATM   14  C   UNL     1      16.746  -0.688 -18.438  1.00  0.00     0.066 C 
HETATM   15  C   UNL     1      15.386  -1.357 -18.792  1.00  0.00     0.105 C 
HETATM   16  C   UNL     1      14.213  -0.539 -18.194  1.00  0.00     0.105 C 
HETATM   17  C   UNL     1      13.447  -1.523 -17.372  1.00  0.00     0.232 C 
HETATM   18  O   UNL     1      12.560  -1.219 -16.589  1.00  0.00    -0.272 OA
HETATM   19  N   UNL     1      13.908  -2.781 -17.644  1.00  0.00    -0.283 N 
HETATM   20  C   UNL     1      15.140  -2.750 -18.249  1.00  0.00     0.232 C 
HETATM   21  O   UNL     1      15.921  -3.685 -18.364  1.00  0.00    -0.272 OA
ENDROOT
BRANCH  19  22
HETATM   22  C   UNL     1      13.329  -3.958 -17.016  1.00  0.00     0.174 C 
BRANCH  22  23
HETATM   23  C   UNL     1      13.991  -4.315 -15.702  1.00  0.00    -0.024 A 
HETATM   24  C   UNL     1      14.785  -3.404 -15.001  1.00  0.00     0.011 A 
HETATM   25  C   UNL     1      15.352  -3.767 -13.777  1.00  0.00     0.018 A 
HETATM   26  C   UNL     1      15.118  -5.042 -13.292  1.00  0.00     0.087 A 
HETATM   27  N   UNL     1      14.368  -5.954 -13.940  1.00  0.00    -0.375 N 
HETATM   28  C   UNL     1      13.820  -5.573 -15.120  1.00  0.00     0.096 A 
HETATM   29  HN  UNL     1      14.219  -6.889 -13.561  1.00  0.00     0.164 HD
ENDBRANCH  22  23
ENDBRANCH  19  22
TORSDOF 2
ENDMDL
MODEL 9
REMARK VINA RESULT:      -7.3      6.960      9.201
REMARK  2 active torsions:
REMARK  status: ('A' for Active; 'I' for Inactive)
REMARK    1  A    between atoms: N_19  and  C_20 
REMARK    2  A    between atoms: C_20  and  C_21 
ROOT
HETATM    1  C   UNL     1      24.238   3.369 -26.169  1.00  0.00     0.001 A 
HETATM    2  C   UNL     1      23.469   4.463 -25.738  1.00  0.00     0.001 A 
HETATM    3  C   UNL     1      23.102   4.605 -24.394  1.00  0.00     0.008 A 
HETATM    4  C   UNL     1      23.516   3.640 -23.488  1.00  0.00    -0.042 A 
HETATM    5  C   UNL     1      24.276   2.519 -23.938  1.00  0.00    -0.042 A 
HETATM    6  C   UNL     1      24.645   2.387 -25.269  1.00  0.00     0.008 A 
HETATM    7  C   UNL     1      24.618   1.528 -22.825  1.00  0.00     0.066 C 
HETATM    8  C   UNL     1      23.299   1.152 -22.145  1.00  0.00    -0.042 A 
HETATM    9  C   UNL     1      22.810  -0.138 -21.994  1.00  0.00     0.008 A 
HETATM   10  C   UNL     1      21.545  -0.312 -21.430  1.00  0.00     0.001 A 
HETATM   11  C   UNL     1      20.778   0.793 -21.031  1.00  0.00     0.001 A 
HETATM   12  C   UNL     1      21.272   2.092 -21.167  1.00  0.00     0.008 A 
HETATM   13  C   UNL     1      22.539   2.268 -21.709  1.00  0.00    -0.042 A 
HETATM   14  C   UNL     1      23.219   3.609 -21.975  1.00  0.00     0.066 C 
HETATM   15  C   UNL     1      24.619   3.569 -21.297  1.00  0.00     0.105 C 
HETATM   16  C   UNL     1      25.447   2.376 -21.841  1.00  0.00     0.105 C 
HETATM   17  C   UNL     1      25.842   1.606 -20.625  1.00  0.00     0.232 C 
HETATM   18  O   UNL     1      26.342   0.491 -20.652  1.00  0.00    -0.272 OA
HETATM   19  N   UNL     1      25.548   2.348 -19.515  1.00  0.00    -0.283 N 
HETATM   20  C   UNL     1      24.655   3.351 -19.798  1.00  0.00     0.232 C 
HETATM   21  O   UNL     1      23.999   3.995 -18.990  1.00  0.00    -0.272 OA
ENDROOT
BRANCH  19  22
HETATM   22  C   UNL     1      25.852   1.870 -18.176  1.00  0.00     0.174 C 
BRANCH  22  23
HETATM   23  C   UNL     1      24.709   1.104 -17.545  1.00  0.00    -0.024 A 
HETATM   24  C   UNL     1      23.773   0.406 -18.312  1.00  0.00     0.011 A 
HETATM   25  C   UNL     1      22.751  -0.312 -17.687  1.00  0.00     0.018 A 
HETATM   26  C   UNL     1      22.686  -0.301 -16.304  1.00  0.00     0.087 A 
HETATM   27  N   UNL     1      23.561   0.367 -15.528  1.00  0.00    -0.375 N 
HETATM   28  C   UNL     1      24.550   1.046 -16.159  1.00  0.00     0.096 A 
HETATM   29  HN  UNL     1      23.484   0.362 -14.511  1.00  0.00     0.164 HD
ENDBRANCH  22  23
ENDBRANCH  19  22
TORSDOF 2
ENDMDL
