MODEL 1
REMARK VINA RESULT:      -6.9      0.000      0.000
REMARK  4 active torsions:
REMARK  status: ('A' for Active; 'I' for Inactive)
REMARK    1  A    between atoms: C_3  and  C_4 
REMARK    2  A    between atoms: C_4  and  O_6 
REMARK    3  A    between atoms: O_6  and  C_7 
REMARK    4  A    between atoms: C_10  and  N_13 
ROOT
HETATM    1  C   UNL     1      16.400  -5.287 -28.675  1.00  0.00     0.027 A 
HETATM    2  C   UNL     1      15.168  -4.841 -28.148  1.00  0.00     0.045 A 
HETATM    3  C   UNL     1      14.555  -5.941 -27.559  1.00  0.00     0.150 A 
HETATM    4  O   UNL     1      15.356  -7.038 -27.717  1.00  0.00    -0.317 OA
HETATM    5  C   UNL     1      16.470  -6.630 -28.383  1.00  0.00     0.143 A 
ENDROOT
BRANCH   3   6
HETATM    6  C   UNL     1      13.314  -6.005 -26.830  1.00  0.00     0.322 C 
HETATM    7  O   UNL     1      12.443  -6.841 -27.072  1.00  0.00    -0.257 OA
BRANCH   6   8
HETATM    8  O   UNL     1      13.225  -5.009 -25.839  1.00  0.00    -0.273 OA
BRANCH   8   9
HETATM    9  C   UNL     1      13.780  -5.270 -24.569  1.00  0.00     0.079 A 
HETATM   10  C   UNL     1      14.458  -6.444 -24.275  1.00  0.00     0.039 A 
HETATM   11  C   UNL     1      14.884  -6.696 -22.965  1.00  0.00     0.033 A 
HETATM   12  C   UNL     1      14.685  -5.778 -21.914  1.00  0.00     0.045 A 
HETATM   13  C   UNL     1      14.100  -4.549 -22.268  1.00  0.00     0.033 A 
HETATM   14  C   UNL     1      13.653  -4.294 -23.583  1.00  0.00     0.039 A 
BRANCH  12  15
HETATM   15  N   UNL     1      14.973  -6.153 -20.562  1.00  0.00    -0.252 N 
HETATM   16  C   UNL     1      14.064  -6.793 -19.745  1.00  0.00     0.236 C 
HETATM   17  O   UNL     1      13.040  -7.400 -20.041  1.00  0.00    -0.272 OA
HETATM   18  C   UNL     1      14.541  -6.706 -18.328  1.00  0.00     0.097 C 
HETATM   19  C   UNL     1      14.669  -8.087 -17.672  1.00  0.00     0.015 C 
HETATM   20  C   UNL     1      15.982  -6.214 -18.403  1.00  0.00     0.097 C 
HETATM   21  C   UNL     1      15.995  -8.591 -18.283  1.00  0.00     0.013 C 
HETATM   22  C   UNL     1      15.062  -7.944 -16.183  1.00  0.00     0.077 C 
HETATM   23  C   UNL     1      16.798  -7.388 -17.786  1.00  0.00     0.015 C 
HETATM   24  C   UNL     1      16.529  -7.493 -16.257  1.00  0.00     0.077 C 
HETATM   25 BR   UNL     1      17.666  -8.897 -15.460  1.00  0.00    -0.089 Br
HETATM   26 BR   UNL     1      13.994  -6.651 -15.191  1.00  0.00    -0.089 Br
HETATM   27  C   UNL     1      16.170  -5.964 -19.891  1.00  0.00     0.236 C 
HETATM   28  O   UNL     1      17.263  -5.649 -20.350  1.00  0.00    -0.272 OA
ENDBRANCH  12  15
ENDBRANCH   8   9
ENDBRANCH   6   8
ENDBRANCH   3   6
TORSDOF 4
ENDMDL
MODEL 2
REMARK VINA RESULT:      -6.8      5.419      6.933
REMARK  4 active torsions:
REMARK  status: ('A' for Active; 'I' for Inactive)
REMARK    1  A    between atoms: C_3  and  C_4 
REMARK    2  A    between atoms: C_4  and  O_6 
REMARK    3  A    between atoms: O_6  and  C_7 
REMARK    4  A    between atoms: C_10  and  N_13 
ROOT
HETATM    1  C   UNL     1      12.975 -15.267 -20.767  1.00  0.00     0.027 A 
HETATM    2  C   UNL     1      12.770 -13.893 -20.512  1.00  0.00     0.045 A 
HETATM    3  C   UNL     1      13.739 -13.198 -21.226  1.00  0.00     0.150 A 
HETATM    4  O   UNL     1      14.532 -14.091 -21.892  1.00  0.00    -0.317 OA
HETATM    5  C   UNL     1      14.055 -15.335 -21.615  1.00  0.00     0.143 A 
ENDROOT
BRANCH   3   6
HETATM    6  C   UNL     1      13.925 -11.775 -21.353  1.00  0.00     0.322 C 
HETATM    7  O   UNL     1      13.096 -11.042 -21.893  1.00  0.00    -0.257 OA
BRANCH   6   8
HETATM    8  O   UNL     1      15.147 -11.344 -20.803  1.00  0.00    -0.273 OA
BRANCH   8   9
HETATM    9  C   UNL     1      15.128 -10.317 -19.837  1.00  0.00     0.079 A 
HETATM   10  C   UNL     1      14.294 -10.348 -18.728  1.00  0.00     0.039 A 
HETATM   11  C   UNL     1      14.235  -9.245 -17.868  1.00  0.00     0.033 A 
HETATM   12  C   UNL     1      15.025  -8.092 -18.058  1.00  0.00     0.045 A 
HETATM   13  C   UNL     1      15.943  -8.140 -19.122  1.00  0.00     0.033 A 
HETATM   14  C   UNL     1      15.998  -9.241 -20.003  1.00  0.00     0.039 A 
BRANCH  12  15
HETATM   15  N   UNL     1      14.801  -6.922 -17.263  1.00  0.00    -0.252 N 
HETATM   16  C   UNL     1      15.464  -6.675 -16.078  1.00  0.00     0.236 C 
HETATM   17  O   UNL     1      16.497  -7.172 -15.643  1.00  0.00    -0.272 OA
HETATM   18  C   UNL     1      14.747  -5.587 -15.340  1.00  0.00     0.097 C 
HETATM   19  C   UNL     1      15.668  -4.408 -15.002  1.00  0.00     0.015 C 
HETATM   20  C   UNL     1      13.758  -4.989 -16.335  1.00  0.00     0.097 C 
HETATM   21  C   UNL     1      15.749  -3.686 -16.364  1.00  0.00     0.013 C 
HETATM   22  C   UNL     1      14.915  -3.359 -14.151  1.00  0.00     0.077 C 
HETATM   23  C   UNL     1      14.233  -3.514 -16.476  1.00  0.00     0.015 C 
HETATM   24  C   UNL     1      13.951  -2.724 -15.165  1.00  0.00     0.077 C 
HETATM   25 BR   UNL     1      14.435  -0.824 -15.397  1.00  0.00    -0.089 Br
HETATM   26 BR   UNL     1      13.934  -4.103 -12.642  1.00  0.00    -0.089 Br
HETATM   27  C   UNL     1      13.936  -5.880 -17.555  1.00  0.00     0.236 C 
HETATM   28  O   UNL     1      13.364  -5.634 -18.612  1.00  0.00    -0.272 OA
ENDBRANCH  12  15
ENDBRANCH   8   9
ENDBRANCH   6   8
ENDBRANCH   3   6
TORSDOF 4
ENDMDL
MODEL 3
REMARK VINA RESULT:      -6.7      2.670      3.390
REMARK  4 active torsions:
REMARK  status: ('A' for Active; 'I' for Inactive)
REMARK    1  A    between atoms: C_3  and  C_4 
REMARK    2  A    between atoms: C_4  and  O_6 
REMARK    3  A    between atoms: O_6  and  C_7 
REMARK    4  A    between atoms: C_10  and  N_13 
ROOT
HETATM    1  C   UNL     1      15.961  -5.184 -28.541  1.00  0.00     0.027 A 
HETATM    2  C   UNL     1      14.883  -5.148 -27.630  1.00  0.00     0.045 A 
HETATM    3  C   UNL     1      14.808  -6.405 -27.039  1.00  0.00     0.150 A 
HETATM    4  O   UNL     1      15.786  -7.205 -27.563  1.00  0.00    -0.317 OA
HETATM    5  C   UNL     1      16.481  -6.455 -28.461  1.00  0.00     0.143 A 
ENDROOT
BRANCH   3   6
HETATM    6  C   UNL     1      13.924  -6.867 -26.000  1.00  0.00     0.322 C 
HETATM    7  O   UNL     1      14.020  -7.986 -25.494  1.00  0.00    -0.257 OA
BRANCH   6   8
HETATM    8  O   UNL     1      12.957  -5.904 -25.654  1.00  0.00    -0.273 OA
BRANCH   8   9
HETATM    9  C   UNL     1      12.952  -5.397 -24.338  1.00  0.00     0.079 A 
HETATM   10  C   UNL     1      13.841  -4.423 -23.907  1.00  0.00     0.039 A 
HETATM   11  C   UNL     1      13.864  -4.044 -22.559  1.00  0.00     0.033 A 
HETATM   12  C   UNL     1      12.983  -4.592 -21.604  1.00  0.00     0.045 A 
HETATM   13  C   UNL     1      12.018  -5.489 -22.094  1.00  0.00     0.033 A 
HETATM   14  C   UNL     1      11.999  -5.888 -23.448  1.00  0.00     0.039 A 
BRANCH  12  15
HETATM   15  N   UNL     1      13.163  -4.312 -20.210  1.00  0.00    -0.252 N 
HETATM   16  C   UNL     1      13.830  -5.157 -19.349  1.00  0.00     0.236 C 
HETATM   17  O   UNL     1      14.604  -6.075 -19.599  1.00  0.00    -0.272 OA
HETATM   18  C   UNL     1      13.522  -4.756 -17.940  1.00  0.00     0.097 C 
HETATM   19  C   UNL     1      14.789  -4.467 -17.126  1.00  0.00     0.015 C 
HETATM   20  C   UNL     1      12.842  -3.393 -18.033  1.00  0.00     0.097 C 
HETATM   21  C   UNL     1      15.167  -3.061 -17.641  1.00  0.00     0.013 C 
HETATM   22  C   UNL     1      14.429  -4.159 -15.654  1.00  0.00     0.077 C 
HETATM   23  C   UNL     1      13.815  -2.451 -17.265  1.00  0.00     0.015 C 
HETATM   24  C   UNL     1      13.787  -2.765 -15.742  1.00  0.00     0.077 C 
HETATM   25 BR   UNL     1      14.922  -1.481 -14.760  1.00  0.00    -0.089 Br
HETATM   26 BR   UNL     1      13.197  -5.433 -14.844  1.00  0.00    -0.089 Br
HETATM   27  C   UNL     1      12.734  -3.180 -19.535  1.00  0.00     0.236 C 
HETATM   28  O   UNL     1      12.322  -2.122 -20.000  1.00  0.00    -0.272 OA
ENDBRANCH  12  15
ENDBRANCH   8   9
ENDBRANCH   6   8
ENDBRANCH   3   6
TORSDOF 4
ENDMDL
MODEL 4
REMARK VINA RESULT:      -6.7      5.921      7.167
REMARK  4 active torsions:
REMARK  status: ('A' for Active; 'I' for Inactive)
REMARK    1  A    between atoms: C_3  and  C_4 
REMARK    2  A    between atoms: C_4  and  O_6 
REMARK    3  A    between atoms: O_6  and  C_7 
REMARK    4  A    between atoms: C_10  and  N_13 
ROOT
HETATM    1  C   UNL     1      12.968 -14.528 -20.628  1.00  0.00     0.027 A 
HETATM    2  C   UNL     1      13.172 -13.226 -20.117  1.00  0.00     0.045 A 
HETATM    3  C   UNL     1      14.361 -12.756 -20.665  1.00  0.00     0.150 A 
HETATM    4  O   UNL     1      14.893 -13.721 -21.474  1.00  0.00    -0.317 OA
HETATM    5  C   UNL     1      14.040 -14.781 -21.452  1.00  0.00     0.143 A 
ENDROOT
BRANCH   3   6
HETATM    6  C   UNL     1      14.980 -11.464 -20.513  1.00  0.00     0.322 C 
HETATM    7  O   UNL     1      14.888 -10.578 -21.363  1.00  0.00    -0.257 OA
BRANCH   6   8
HETATM    8  O   UNL     1      15.693 -11.353 -19.304  1.00  0.00    -0.273 OA
BRANCH   8   9
HETATM    9  C   UNL     1      15.630 -10.137 -18.593  1.00  0.00     0.079 A 
HETATM   10  C   UNL     1      14.475  -9.373 -18.517  1.00  0.00     0.039 A 
HETATM   11  C   UNL     1      14.505  -8.118 -17.896  1.00  0.00     0.033 A 
HETATM   12  C   UNL     1      15.672  -7.597 -17.300  1.00  0.00     0.045 A 
HETATM   13  C   UNL     1      16.795  -8.444 -17.291  1.00  0.00     0.033 A 
HETATM   14  C   UNL     1      16.776  -9.703 -17.929  1.00  0.00     0.039 A 
BRANCH  12  15
HETATM   15  N   UNL     1      15.705  -6.241 -16.839  1.00  0.00    -0.252 N 
HETATM   16  C   UNL     1      14.967  -5.789 -15.765  1.00  0.00     0.236 C 
HETATM   17  O   UNL     1      14.424  -6.425 -14.868  1.00  0.00    -0.272 OA
HETATM   18  C   UNL     1      14.949  -4.292 -15.784  1.00  0.00     0.097 C 
HETATM   19  C   UNL     1      15.464  -3.687 -14.473  1.00  0.00     0.015 C 
HETATM   20  C   UNL     1      16.004  -3.876 -16.805  1.00  0.00     0.097 C 
HETATM   21  C   UNL     1      16.990  -3.856 -14.638  1.00  0.00     0.013 C 
HETATM   22  C   UNL     1      15.330  -2.147 -14.497  1.00  0.00     0.077 C 
HETATM   23  C   UNL     1      17.034  -3.077 -15.954  1.00  0.00     0.015 C 
HETATM   24  C   UNL     1      16.424  -1.723 -15.490  1.00  0.00     0.077 C 
HETATM   25 BR   UNL     1      17.779  -0.660 -14.525  1.00  0.00    -0.089 Br
HETATM   26 BR   UNL     1      13.586  -1.501 -15.080  1.00  0.00    -0.089 Br
HETATM   27  C   UNL     1      16.472  -5.211 -17.361  1.00  0.00     0.236 C 
HETATM   28  O   UNL     1      17.408  -5.279 -18.151  1.00  0.00    -0.272 OA
ENDBRANCH  12  15
ENDBRANCH   8   9
ENDBRANCH   6   8
ENDBRANCH   3   6
TORSDOF 4
ENDMDL
MODEL 5
REMARK VINA RESULT:      -6.7      3.368      4.117
REMARK  4 active torsions:
REMARK  status: ('A' for Active; 'I' for Inactive)
REMARK    1  A    between atoms: C_3  and  C_4 
REMARK    2  A    between atoms: C_4  and  O_6 
REMARK    3  A    between atoms: O_6  and  C_7 
REMARK    4  A    between atoms: C_10  and  N_13 
ROOT
HETATM    1  C   UNL     1      16.399  -5.573 -29.626  1.00  0.00     0.027 A 
HETATM    2  C   UNL     1      15.591  -5.490 -28.470  1.00  0.00     0.045 A 
HETATM    3  C   UNL     1      15.092  -6.765 -28.229  1.00  0.00     0.150 A 
HETATM    4  O   UNL     1      15.552  -7.615 -29.197  1.00  0.00    -0.317 OA
HETATM    5  C   UNL     1      16.346  -6.887 -30.028  1.00  0.00     0.143 A 
ENDROOT
BRANCH   3   6
HETATM    6  C   UNL     1      14.271  -7.227 -27.140  1.00  0.00     0.322 C 
HETATM    7  O   UNL     1      13.084  -7.523 -27.281  1.00  0.00    -0.257 OA
BRANCH   6   8
HETATM    8  O   UNL     1      14.979  -7.286 -25.925  1.00  0.00    -0.273 OA
BRANCH   8   9
HETATM    9  C   UNL     1      14.536  -6.493 -24.847  1.00  0.00     0.079 A 
HETATM   10  C   UNL     1      14.058  -5.201 -25.014  1.00  0.00     0.039 A 
HETATM   11  C   UNL     1      13.743  -4.421 -23.894  1.00  0.00     0.033 A 
HETATM   12  C   UNL     1      13.856  -4.909 -22.576  1.00  0.00     0.045 A 
HETATM   13  C   UNL     1      14.231  -6.258 -22.444  1.00  0.00     0.033 A 
HETATM   14  C   UNL     1      14.566  -7.045 -23.567  1.00  0.00     0.039 A 
BRANCH  12  15
HETATM   15  N   UNL     1      13.699  -4.023 -21.461  1.00  0.00    -0.252 N 
HETATM   16  C   UNL     1      12.468  -3.623 -20.981  1.00  0.00     0.236 C 
HETATM   17  O   UNL     1      11.360  -4.116 -21.166  1.00  0.00    -0.272 OA
HETATM   18  C   UNL     1      12.660  -2.445 -20.078  1.00  0.00     0.097 C 
HETATM   19  C   UNL     1      12.069  -2.679 -18.682  1.00  0.00     0.015 C 
HETATM   20  C   UNL     1      14.161  -2.359 -19.817  1.00  0.00     0.097 C 
HETATM   21  C   UNL     1      13.147  -3.580 -18.043  1.00  0.00     0.013 C 
HETATM   22  C   UNL     1      12.196  -1.403 -17.819  1.00  0.00     0.077 C 
HETATM   23  C   UNL     1      14.273  -2.572 -18.279  1.00  0.00     0.015 C 
HETATM   24  C   UNL     1      13.702  -1.341 -17.516  1.00  0.00     0.077 C 
HETATM   25 BR   UNL     1      13.968  -1.561 -15.572  1.00  0.00    -0.089 Br
HETATM   26 BR   UNL     1      11.606   0.229 -18.706  1.00  0.00    -0.089 Br
HETATM   27  C   UNL     1      14.714  -3.468 -20.698  1.00  0.00     0.236 C 
HETATM   28  O   UNL     1      15.903  -3.769 -20.672  1.00  0.00    -0.272 OA
ENDBRANCH  12  15
ENDBRANCH   8   9
ENDBRANCH   6   8
ENDBRANCH   3   6
TORSDOF 4
ENDMDL
MODEL 6
REMARK VINA RESULT:      -6.7      3.709      5.817
REMARK  4 active torsions:
REMARK  status: ('A' for Active; 'I' for Inactive)
REMARK    1  A    between atoms: C_3  and  C_4 
REMARK    2  A    between atoms: C_4  and  O_6 
REMARK    3  A    between atoms: O_6  and  C_7 
REMARK    4  A    between atoms: C_10  and  N_13 
ROOT
HETATM    1  C   UNL     1      16.456  -6.320 -34.831  1.00  0.00     0.027 A 
HETATM    2  C   UNL     1      16.477  -5.607 -33.612  1.00  0.00     0.045 A 
HETATM    3  C   UNL     1      16.499  -6.549 -32.589  1.00  0.00     0.150 A 
HETATM    4  O   UNL     1      16.479  -7.803 -33.135  1.00  0.00    -0.317 OA
HETATM    5  C   UNL     1      16.463  -7.652 -34.487  1.00  0.00     0.143 A 
ENDROOT
BRANCH   3   6
HETATM    6  C   UNL     1      16.587  -6.341 -31.166  1.00  0.00     0.322 C 
HETATM    7  O   UNL     1      16.848  -5.245 -30.670  1.00  0.00    -0.257 OA
BRANCH   6   8
HETATM    8  O   UNL     1      16.351  -7.523 -30.438  1.00  0.00    -0.273 OA
BRANCH   8   9
HETATM    9  C   UNL     1      15.835  -7.418 -29.131  1.00  0.00     0.079 A 
HETATM   10  C   UNL     1      14.486  -7.222 -28.871  1.00  0.00     0.039 A 
HETATM   11  C   UNL     1      14.050  -7.007 -27.558  1.00  0.00     0.033 A 
HETATM   12  C   UNL     1      14.932  -7.016 -26.457  1.00  0.00     0.045 A 
HETATM   13  C   UNL     1      16.272  -7.332 -26.739  1.00  0.00     0.033 A 
HETATM   14  C   UNL     1      16.722  -7.534 -28.062  1.00  0.00     0.039 A 
BRANCH  12  15
HETATM   15  N   UNL     1      14.473  -6.614 -25.161  1.00  0.00    -0.252 N 
HETATM   16  C   UNL     1      13.989  -5.351 -24.888  1.00  0.00     0.236 C 
HETATM   17  O   UNL     1      13.588  -4.486 -25.658  1.00  0.00    -0.272 OA
HETATM   18  C   UNL     1      13.947  -5.158 -23.404  1.00  0.00     0.097 C 
HETATM   19  C   UNL     1      12.549  -4.771 -22.906  1.00  0.00     0.015 C 
HETATM   20  C   UNL     1      14.169  -6.540 -22.797  1.00  0.00     0.097 C 
HETATM   21  C   UNL     1      11.827  -6.135 -22.935  1.00  0.00     0.013 C 
HETATM   22  C   UNL     1      12.576  -4.479 -21.388  1.00  0.00     0.077 C 
HETATM   23  C   UNL     1      12.848  -6.808 -22.017  1.00  0.00     0.015 C 
HETATM   24  C   UNL     1      12.753  -5.877 -20.773  1.00  0.00     0.077 C 
HETATM   25 BR   UNL     1      11.142  -6.313 -19.718  1.00  0.00    -0.089 Br
HETATM   26 BR   UNL     1      14.016  -3.294 -20.822  1.00  0.00    -0.089 Br
HETATM   27  C   UNL     1      14.421  -7.404 -24.023  1.00  0.00     0.236 C 
HETATM   28  O   UNL     1      14.542  -8.621 -23.930  1.00  0.00    -0.272 OA
ENDBRANCH  12  15
ENDBRANCH   8   9
ENDBRANCH   6   8
ENDBRANCH   3   6
TORSDOF 4
ENDMDL
MODEL 7
REMARK VINA RESULT:      -6.6      9.255     10.614
REMARK  4 active torsions:
REMARK  status: ('A' for Active; 'I' for Inactive)
REMARK    1  A    between atoms: C_3  and  C_4 
REMARK    2  A    between atoms: C_4  and  O_6 
REMARK    3  A    between atoms: O_6  and  C_7 
REMARK    4  A    between atoms: C_10  and  N_13 
ROOT
HETATM    1  C   UNL     1      23.891   4.203 -26.794  1.00  0.00     0.027 A 
HETATM    2  C   UNL     1      24.292   3.049 -26.086  1.00  0.00     0.045 A 
HETATM    3  C   UNL     1      25.035   3.479 -24.993  1.00  0.00     0.150 A 
HETATM    4  O   UNL     1      25.113   4.844 -25.014  1.00  0.00    -0.317 OA
HETATM    5  C   UNL     1      24.412   5.270 -26.099  1.00  0.00     0.143 A 
ENDROOT
BRANCH   3   6
HETATM    6  C   UNL     1      25.617   2.701 -23.929  1.00  0.00     0.322 C 
HETATM    7  O   UNL     1      26.505   1.871 -24.122  1.00  0.00    -0.257 OA
BRANCH   6   8
HETATM    8  O   UNL     1      25.048   3.000 -22.676  1.00  0.00    -0.273 OA
BRANCH   8   9
HETATM    9  C   UNL     1      23.922   2.263 -22.255  1.00  0.00     0.079 A 
HETATM   10  C   UNL     1      22.782   2.865 -21.741  1.00  0.00     0.039 A 
HETATM   11  C   UNL     1      21.744   2.076 -21.230  1.00  0.00     0.033 A 
HETATM   12  C   UNL     1      21.786   0.667 -21.246  1.00  0.00     0.045 A 
HETATM   13  C   UNL     1      22.900   0.087 -21.878  1.00  0.00     0.033 A 
HETATM   14  C   UNL     1      23.958   0.876 -22.381  1.00  0.00     0.039 A 
BRANCH  12  15
HETATM   15  N   UNL     1      20.790  -0.094 -20.553  1.00  0.00    -0.252 N 
HETATM   16  C   UNL     1      19.624  -0.532 -21.146  1.00  0.00     0.236 C 
HETATM   17  O   UNL     1      19.345  -0.637 -22.336  1.00  0.00    -0.272 OA
HETATM   18  C   UNL     1      18.668  -0.962 -20.077  1.00  0.00     0.097 C 
HETATM   19  C   UNL     1      18.191  -2.407 -20.269  1.00  0.00     0.015 C 
HETATM   20  C   UNL     1      19.483  -1.026 -18.789  1.00  0.00     0.097 C 
HETATM   21  C   UNL     1      19.411  -3.200 -19.755  1.00  0.00     0.013 C 
HETATM   22  C   UNL     1      17.128  -2.772 -19.206  1.00  0.00     0.077 C 
HETATM   23  C   UNL     1      19.398  -2.526 -18.382  1.00  0.00     0.015 C 
HETATM   24  C   UNL     1      17.957  -2.883 -17.916  1.00  0.00     0.077 C 
HETATM   25 BR   UNL     1      17.889  -4.750 -17.278  1.00  0.00    -0.089 Br
HETATM   26 BR   UNL     1      15.710  -1.451 -19.001  1.00  0.00    -0.089 Br
HETATM   27  C   UNL     1      20.846  -0.519 -19.234  1.00  0.00     0.236 C 
HETATM   28  O   UNL     1      21.807  -0.525 -18.473  1.00  0.00    -0.272 OA
ENDBRANCH  12  15
ENDBRANCH   8   9
ENDBRANCH   6   8
ENDBRANCH   3   6
TORSDOF 4
ENDMDL
MODEL 8
REMARK VINA RESULT:      -6.6      4.639      7.500
REMARK  4 active torsions:
REMARK  status: ('A' for Active; 'I' for Inactive)
REMARK    1  A    between atoms: C_3  and  C_4 
REMARK    2  A    between atoms: C_4  and  O_6 
REMARK    3  A    between atoms: O_6  and  C_7 
REMARK    4  A    between atoms: C_10  and  N_13 
ROOT
HETATM    1  C   UNL     1      12.682  -6.997 -34.761  1.00  0.00     0.027 A 
HETATM    2  C   UNL     1      14.053  -7.144 -34.453  1.00  0.00     0.045 A 
HETATM    3  C   UNL     1      14.556  -5.870 -34.214  1.00  0.00     0.150 A 
HETATM    4  O   UNL     1      13.552  -4.955 -34.378  1.00  0.00    -0.317 OA
HETATM    5  C   UNL     1      12.426  -5.647 -34.698  1.00  0.00     0.143 A 
ENDROOT
BRANCH   3   6
HETATM    6  C   UNL     1      15.880  -5.480 -33.802  1.00  0.00     0.322 C 
HETATM    7  O   UNL     1      16.359  -4.376 -34.061  1.00  0.00    -0.257 OA
BRANCH   6   8
HETATM    8  O   UNL     1      16.540  -6.501 -33.092  1.00  0.00    -0.273 OA
BRANCH   8   9
HETATM    9  C   UNL     1      16.308  -6.617 -31.706  1.00  0.00     0.079 A 
HETATM   10  C   UNL     1      15.695  -7.726 -31.139  1.00  0.00     0.039 A 
HETATM   11  C   UNL     1      15.386  -7.732 -29.774  1.00  0.00     0.033 A 
HETATM   12  C   UNL     1      15.706  -6.656 -28.920  1.00  0.00     0.045 A 
HETATM   13  C   UNL     1      16.430  -5.600 -29.500  1.00  0.00     0.033 A 
HETATM   14  C   UNL     1      16.731  -5.579 -30.879  1.00  0.00     0.039 A 
BRANCH  12  15
HETATM   15  N   UNL     1      15.212  -6.628 -27.576  1.00  0.00    -0.252 N 
HETATM   16  C   UNL     1      14.276  -5.716 -27.134  1.00  0.00     0.236 C 
HETATM   17  O   UNL     1      13.507  -5.010 -27.779  1.00  0.00    -0.272 OA
HETATM   18  C   UNL     1      14.258  -5.726 -25.637  1.00  0.00     0.097 C 
HETATM   19  C   UNL     1      12.860  -6.007 -25.073  1.00  0.00     0.015 C 
HETATM   20  C   UNL     1      15.061  -6.954 -25.218  1.00  0.00     0.097 C 
HETATM   21  C   UNL     1      12.753  -7.534 -25.269  1.00  0.00     0.013 C 
HETATM   22  C   UNL     1      12.868  -5.904 -23.530  1.00  0.00     0.077 C 
HETATM   23  C   UNL     1      14.019  -7.827 -24.461  1.00  0.00     0.015 C 
HETATM   24  C   UNL     1      13.636  -7.166 -23.106  1.00  0.00     0.077 C 
HETATM   25 BR   UNL     1      12.416  -8.342 -22.093  1.00  0.00    -0.089 Br
HETATM   26 BR   UNL     1      13.736  -4.304 -22.835  1.00  0.00    -0.089 Br
HETATM   27  C   UNL     1      15.560  -7.493 -26.550  1.00  0.00     0.236 C 
HETATM   28  O   UNL     1      16.171  -8.554 -26.619  1.00  0.00    -0.272 OA
ENDBRANCH  12  15
ENDBRANCH   8   9
ENDBRANCH   6   8
ENDBRANCH   3   6
TORSDOF 4
ENDMDL
MODEL 9
REMARK VINA RESULT:      -6.6      6.985      8.628
REMARK  4 active torsions:
REMARK  status: ('A' for Active; 'I' for Inactive)
REMARK    1  A    between atoms: C_3  and  C_4 
REMARK    2  A    between atoms: C_4  and  O_6 
REMARK    3  A    between atoms: O_6  and  C_7 
REMARK    4  A    between atoms: C_10  and  N_13 
ROOT
HETATM    1  C   UNL     1      23.484   3.189 -22.922  1.00  0.00     0.027 A 
HETATM    2  C   UNL     1      23.020   2.250 -21.975  1.00  0.00     0.045 A 
HETATM    3  C   UNL     1      23.550   1.015 -22.333  1.00  0.00     0.150 A 
HETATM    4  O   UNL     1      24.305   1.163 -23.464  1.00  0.00    -0.317 OA
HETATM    5  C   UNL     1      24.264   2.480 -23.804  1.00  0.00     0.143 A 
ENDROOT
BRANCH   3   6
HETATM    6  C   UNL     1      23.432  -0.252 -21.659  1.00  0.00     0.322 C 
HETATM    7  O   UNL     1      24.074  -0.529 -20.645  1.00  0.00    -0.257 OA
BRANCH   6   8
HETATM    8  O   UNL     1      22.518  -1.113 -22.296  1.00  0.00    -0.273 OA
BRANCH   8   9
HETATM    9  C   UNL     1      21.257  -1.319 -21.699  1.00  0.00     0.079 A 
HETATM   10  C   UNL     1      20.153  -0.531 -21.989  1.00  0.00     0.039 A 
HETATM   11  C   UNL     1      18.960  -0.710 -21.278  1.00  0.00     0.033 A 
HETATM   12  C   UNL     1      18.812  -1.699 -20.283  1.00  0.00     0.045 A 
HETATM   13  C   UNL     1      19.911  -2.556 -20.094  1.00  0.00     0.033 A 
HETATM   14  C   UNL     1      21.122  -2.372 -20.796  1.00  0.00     0.039 A 
BRANCH  12  15
HETATM   15  N   UNL     1      17.641  -1.726 -19.459  1.00  0.00    -0.252 N 
HETATM   16  C   UNL     1      16.452  -2.305 -19.854  1.00  0.00     0.236 C 
HETATM   17  O   UNL     1      16.236  -3.108 -20.755  1.00  0.00    -0.272 OA
HETATM   18  C   UNL     1      15.361  -1.845 -18.937  1.00  0.00     0.097 C 
HETATM   19  C   UNL     1      14.618  -3.016 -18.284  1.00  0.00     0.015 C 
HETATM   20  C   UNL     1      16.061  -1.169 -17.762  1.00  0.00     0.097 C 
HETATM   21  C   UNL     1      15.619  -3.436 -17.185  1.00  0.00     0.013 C 
HETATM   22  C   UNL     1      13.437  -2.500 -17.430  1.00  0.00     0.077 C 
HETATM   23  C   UNL     1      15.651  -2.048 -16.544  1.00  0.00     0.015 C 
HETATM   24  C   UNL     1      14.140  -1.860 -16.222  1.00  0.00     0.077 C 
HETATM   25 BR   UNL     1      13.658  -2.874 -14.598  1.00  0.00    -0.089 Br
HETATM   26 BR   UNL     1      12.302  -1.198 -18.333  1.00  0.00    -0.089 Br
HETATM   27  C   UNL     1      17.524  -1.220 -18.174  1.00  0.00     0.236 C 
HETATM   28  O   UNL     1      18.413  -0.851 -17.414  1.00  0.00    -0.272 OA
ENDBRANCH  12  15
ENDBRANCH   8   9
ENDBRANCH   6   8
ENDBRANCH   3   6
TORSDOF 4
ENDMDL
