MODEL 1
REMARK VINA RESULT:      -7.5      0.000      0.000
REMARK  6 active torsions:
REMARK  status: ('A' for Active; 'I' for Inactive)
REMARK    1  A    between atoms: C_2  and  N_3 
REMARK    2  A    between atoms: C_12  and  C_13 
REMARK    3  A    between atoms: C_16  and  O_31 
REMARK    4  A    between atoms: C_17  and  S_19 
REMARK    5  A    between atoms: S_19  and  N_22 
REMARK    6  A    between atoms: N_22  and  C_23 
ROOT
HETATM    1  C   UNL     1      13.181  -5.446 -14.519  1.00  0.00     0.028 C 
HETATM    2  C   UNL     1      13.703  -5.877 -15.879  1.00  0.00     0.148 C 
ENDROOT
BRANCH   2   3
HETATM    3  N   UNL     1      13.439  -4.892 -16.921  1.00  0.00    -0.257 N 
HETATM    4  C   UNL     1      12.508  -5.183 -17.901  1.00  0.00     0.268 A 
HETATM    5  O   UNL     1      11.951  -6.274 -18.017  1.00  0.00    -0.266 OA
HETATM    6  C   UNL     1      12.165  -4.068 -18.822  1.00  0.00     0.020 A 
HETATM    7  C   UNL     1      11.031  -4.363 -19.771  1.00  0.00     0.045 C 
HETATM    8  C   UNL     1      12.802  -2.882 -18.760  1.00  0.00    -0.017 A 
HETATM    9  C   UNL     1      10.434  -3.101 -20.385  1.00  0.00     0.005 C 
HETATM   10  C   UNL     1      11.551  -2.197 -20.888  1.00  0.00     0.005 C 
HETATM   11  C   UNL     1      12.465  -1.777 -19.729  1.00  0.00     0.042 C 
HETATM   12  C   UNL     1      13.842  -2.754 -17.680  1.00  0.00     0.065 A 
HETATM   13  N   UNL     1      14.123  -3.707 -16.839  1.00  0.00    -0.294 N 
HETATM   14  HN  UNL     1      14.842  -3.574 -16.128  1.00  0.00     0.187 HD
BRANCH  12  15
HETATM   15  C   UNL     1      14.594  -1.466 -17.461  1.00  0.00    -0.006 A 
HETATM   16  C   UNL     1      14.049  -0.495 -16.610  1.00  0.00     0.016 A 
HETATM   17  C   UNL     1      14.594   0.801 -16.536  1.00  0.00     0.039 A 
HETATM   18  C   UNL     1      15.678   1.174 -17.339  1.00  0.00     0.091 A 
HETATM   19  C   UNL     1      16.217   0.205 -18.193  1.00  0.00     0.108 A 
HETATM   20  C   UNL     1      15.692  -1.103 -18.236  1.00  0.00     0.041 A 
BRANCH  18  21
HETATM   21  O   UNL     1      16.209   2.427 -17.377  1.00  0.00    -0.354 OA
HETATM   22  C   UNL     1      17.035   2.868 -16.308  1.00  0.00     0.210 C 
ENDBRANCH  18  21
BRANCH  19  23
HETATM   23  S   UNL     1      17.561   0.543 -19.316  1.00  0.00     0.248 S 
HETATM   24  O   UNL     1      17.174   1.542 -20.288  1.00  0.00    -0.205 OA
HETATM   25  O   UNL     1      18.752   0.737 -18.511  1.00  0.00    -0.205 OA
BRANCH  23  26
HETATM   26  N   UNL     1      17.668  -0.922 -20.173  1.00  0.00    -0.181 NA
HETATM   27  HN  UNL     1      16.905  -0.978 -20.846  1.00  0.00     0.146 HD
BRANCH  26  28
HETATM   28  C   UNL     1      18.957  -1.338 -20.630  1.00  0.00     0.028 A 
HETATM   29  C   UNL     1      19.435  -0.816 -21.834  1.00  0.00     0.025 A 
HETATM   30  C   UNL     1      20.660  -1.244 -22.354  1.00  0.00     0.008 A 
HETATM   31  C   UNL     1      21.420  -2.197 -21.674  1.00  0.00    -0.061 A 
HETATM   32  C   UNL     1      22.727  -2.688 -22.227  1.00  0.00     0.048 C 
HETATM   33  C   UNL     1      20.949  -2.695 -20.452  1.00  0.00     0.015 A 
HETATM   34  C   UNL     1      19.720  -2.270 -19.916  1.00  0.00    -0.039 A 
HETATM   35  C   UNL     1      19.254  -2.851 -18.611  1.00  0.00     0.050 C 
ENDBRANCH  26  28
ENDBRANCH  23  26
ENDBRANCH  19  23
ENDBRANCH  12  15
ENDBRANCH   2   3
TORSDOF 6
ENDMDL
MODEL 2
REMARK VINA RESULT:      -7.5      5.286      6.858
REMARK  6 active torsions:
REMARK  status: ('A' for Active; 'I' for Inactive)
REMARK    1  A    between atoms: C_2  and  N_3 
REMARK    2  A    between atoms: C_12  and  C_13 
REMARK    3  A    between atoms: C_16  and  O_31 
REMARK    4  A    between atoms: C_17  and  S_19 
REMARK    5  A    between atoms: S_19  and  N_22 
REMARK    6  A    between atoms: N_22  and  C_23 
ROOT
HETATM    1  C   UNL     1       8.011  -9.614 -17.934  1.00  0.00     0.028 C 
HETATM    2  C   UNL     1       7.289  -8.442 -18.576  1.00  0.00     0.148 C 
ENDROOT
BRANCH   2   3
HETATM    3  N   UNL     1       8.195  -7.531 -19.266  1.00  0.00    -0.257 N 
HETATM    4  C   UNL     1       7.709  -6.754 -20.300  1.00  0.00     0.268 A 
HETATM    5  O   UNL     1       6.571  -6.851 -20.756  1.00  0.00    -0.266 OA
HETATM    6  C   UNL     1       8.642  -5.727 -20.834  1.00  0.00     0.020 A 
HETATM    7  C   UNL     1       8.032  -4.788 -21.843  1.00  0.00     0.045 C 
HETATM    8  C   UNL     1       9.914  -5.638 -20.398  1.00  0.00    -0.017 A 
HETATM    9  C   UNL     1       8.859  -3.522 -22.044  1.00  0.00     0.005 C 
HETATM   10  C   UNL     1      10.325  -3.890 -22.226  1.00  0.00     0.005 C 
HETATM   11  C   UNL     1      10.856  -4.614 -20.982  1.00  0.00     0.042 C 
HETATM   12  C   UNL     1      10.306  -6.609 -19.318  1.00  0.00     0.065 A 
HETATM   13  N   UNL     1       9.487  -7.485 -18.810  1.00  0.00    -0.294 N 
HETATM   14  HN  UNL     1       9.803  -8.127 -18.084  1.00  0.00     0.187 HD
BRANCH  12  15
HETATM   15  C   UNL     1      11.680  -6.586 -18.700  1.00  0.00    -0.006 A 
HETATM   16  C   UNL     1      11.935  -5.712 -17.634  1.00  0.00     0.016 A 
HETATM   17  C   UNL     1      13.243  -5.494 -17.164  1.00  0.00     0.039 A 
HETATM   18  C   UNL     1      14.340  -6.117 -17.770  1.00  0.00     0.091 A 
HETATM   19  C   UNL     1      14.086  -6.985 -18.837  1.00  0.00     0.108 A 
HETATM   20  C   UNL     1      12.770  -7.230 -19.282  1.00  0.00     0.041 A 
BRANCH  18  21
HETATM   21  O   UNL     1      15.637  -5.897 -17.419  1.00  0.00    -0.354 OA
HETATM   22  C   UNL     1      16.029  -6.053 -16.061  1.00  0.00     0.210 C 
ENDBRANCH  18  21
BRANCH  19  23
HETATM   23  S   UNL     1      15.381  -7.809 -19.746  1.00  0.00     0.248 S 
HETATM   24  O   UNL     1      16.439  -8.233 -18.855  1.00  0.00    -0.205 OA
HETATM   25  O   UNL     1      14.742  -8.772 -20.622  1.00  0.00    -0.205 OA
BRANCH  23  26
HETATM   26  N   UNL     1      16.028  -6.529 -20.659  1.00  0.00    -0.181 NA
HETATM   27  HN  UNL     1      17.007  -6.721 -20.868  1.00  0.00     0.146 HD
BRANCH  26  28
HETATM   28  C   UNL     1      15.236  -5.999 -21.725  1.00  0.00     0.028 A 
HETATM   29  C   UNL     1      15.002  -6.805 -22.841  1.00  0.00     0.025 A 
HETATM   30  C   UNL     1      14.290  -6.307 -23.936  1.00  0.00     0.008 A 
HETATM   31  C   UNL     1      13.804  -4.998 -23.925  1.00  0.00    -0.061 A 
HETATM   32  C   UNL     1      13.058  -4.436 -25.100  1.00  0.00     0.048 C 
HETATM   33  C   UNL     1      14.017  -4.205 -22.789  1.00  0.00     0.015 A 
HETATM   34  C   UNL     1      14.728  -4.695 -21.679  1.00  0.00    -0.039 A 
HETATM   35  C   UNL     1      14.943  -3.795 -20.496  1.00  0.00     0.050 C 
ENDBRANCH  26  28
ENDBRANCH  23  26
ENDBRANCH  19  23
ENDBRANCH  12  15
ENDBRANCH   2   3
TORSDOF 6
ENDMDL
MODEL 3
REMARK VINA RESULT:      -7.4      4.981      6.158
REMARK  6 active torsions:
REMARK  status: ('A' for Active; 'I' for Inactive)
REMARK    1  A    between atoms: C_2  and  N_3 
REMARK    2  A    between atoms: C_12  and  C_13 
REMARK    3  A    between atoms: C_16  and  O_31 
REMARK    4  A    between atoms: C_17  and  S_19 
REMARK    5  A    between atoms: S_19  and  N_22 
REMARK    6  A    between atoms: N_22  and  C_23 
ROOT
HETATM    1  C   UNL     1       8.486  -8.286 -18.694  1.00  0.00     0.028 C 
HETATM    2  C   UNL     1       8.965  -7.682 -20.003  1.00  0.00     0.148 C 
ENDROOT
BRANCH   2   3
HETATM    3  N   UNL     1       9.927  -6.603 -19.806  1.00  0.00    -0.257 N 
HETATM    4  C   UNL     1       9.769  -5.424 -20.510  1.00  0.00     0.268 A 
HETATM    5  O   UNL     1       8.918  -5.254 -21.382  1.00  0.00    -0.266 OA
HETATM    6  C   UNL     1      10.679  -4.313 -20.128  1.00  0.00     0.020 A 
HETATM    7  C   UNL     1      10.374  -2.995 -20.793  1.00  0.00     0.045 C 
HETATM    8  C   UNL     1      11.660  -4.488 -19.222  1.00  0.00    -0.017 A 
HETATM    9  C   UNL     1      11.027  -1.813 -20.083  1.00  0.00     0.005 C 
HETATM   10  C   UNL     1      12.487  -2.130 -19.792  1.00  0.00     0.005 C 
HETATM   11  C   UNL     1      12.598  -3.357 -18.877  1.00  0.00     0.042 C 
HETATM   12  C   UNL     1      11.743  -5.856 -18.601  1.00  0.00     0.065 A 
HETATM   13  N   UNL     1      10.925  -6.826 -18.894  1.00  0.00    -0.294 N 
HETATM   14  HN  UNL     1      11.027  -7.739 -18.450  1.00  0.00     0.187 HD
BRANCH  12  15
HETATM   15  C   UNL     1      12.758  -6.176 -17.534  1.00  0.00    -0.006 A 
HETATM   16  C   UNL     1      12.726  -5.465 -16.327  1.00  0.00     0.016 A 
HETATM   17  C   UNL     1      13.770  -5.568 -15.388  1.00  0.00     0.039 A 
HETATM   18  C   UNL     1      14.895  -6.360 -15.648  1.00  0.00     0.091 A 
HETATM   19  C   UNL     1      14.929  -7.065 -16.856  1.00  0.00     0.108 A 
HETATM   20  C   UNL     1      13.863  -6.987 -17.777  1.00  0.00     0.041 A 
BRANCH  18  21
HETATM   21  O   UNL     1      15.975  -6.450 -14.823  1.00  0.00    -0.354 OA
HETATM   22  C   UNL     1      16.366  -5.317 -14.059  1.00  0.00     0.210 C 
ENDBRANCH  18  21
BRANCH  19  23
HETATM   23  S   UNL     1      16.317  -8.070 -17.353  1.00  0.00     0.248 S 
HETATM   24  O   UNL     1      17.136  -8.410 -16.210  1.00  0.00    -0.205 OA
HETATM   25  O   UNL     1      15.800  -9.117 -18.212  1.00  0.00    -0.205 OA
BRANCH  23  26
HETATM   26  N   UNL     1      17.231  -6.964 -18.266  1.00  0.00    -0.181 NA
HETATM   27  HN  UNL     1      18.082  -7.418 -18.596  1.00  0.00     0.146 HD
BRANCH  26  28
HETATM   28  C   UNL     1      16.540  -6.138 -19.206  1.00  0.00     0.028 A 
HETATM   29  C   UNL     1      16.034  -6.731 -20.365  1.00  0.00     0.025 A 
HETATM   30  C   UNL     1      15.410  -5.951 -21.343  1.00  0.00     0.008 A 
HETATM   31  C   UNL     1      15.282  -4.572 -21.170  1.00  0.00    -0.061 A 
HETATM   32  C   UNL     1      14.637  -3.714 -22.219  1.00  0.00     0.048 C 
HETATM   33  C   UNL     1      15.765  -3.988 -19.991  1.00  0.00     0.015 A 
HETATM   34  C   UNL     1      16.392  -4.761 -18.998  1.00  0.00    -0.039 A 
HETATM   35  C   UNL     1      16.907  -4.080 -17.762  1.00  0.00     0.050 C 
ENDBRANCH  26  28
ENDBRANCH  23  26
ENDBRANCH  19  23
ENDBRANCH  12  15
ENDBRANCH   2   3
TORSDOF 6
ENDMDL
MODEL 4
REMARK VINA RESULT:      -7.4      4.033      6.416
REMARK  6 active torsions:
REMARK  status: ('A' for Active; 'I' for Inactive)
REMARK    1  A    between atoms: C_2  and  N_3 
REMARK    2  A    between atoms: C_12  and  C_13 
REMARK    3  A    between atoms: C_16  and  O_31 
REMARK    4  A    between atoms: C_17  and  S_19 
REMARK    5  A    between atoms: S_19  and  N_22 
REMARK    6  A    between atoms: N_22  and  C_23 
ROOT
HETATM    1  C   UNL     1      12.733  -4.066 -12.693  1.00  0.00     0.028 C 
HETATM    2  C   UNL     1      14.195  -3.945 -13.083  1.00  0.00     0.148 C 
ENDROOT
BRANCH   2   3
HETATM    3  N   UNL     1      14.522  -4.700 -14.287  1.00  0.00    -0.257 N 
HETATM    4  C   UNL     1      15.662  -5.481 -14.302  1.00  0.00     0.268 A 
HETATM    5  O   UNL     1      16.490  -5.506 -13.392  1.00  0.00    -0.266 OA
HETATM    6  C   UNL     1      15.835  -6.354 -15.492  1.00  0.00     0.020 A 
HETATM    7  C   UNL     1      16.995  -7.313 -15.405  1.00  0.00     0.045 C 
HETATM    8  C   UNL     1      14.980  -6.304 -16.532  1.00  0.00    -0.017 A 
HETATM    9  C   UNL     1      16.894  -8.453 -16.413  1.00  0.00     0.005 C 
HETATM   10  C   UNL     1      16.547  -7.895 -17.786  1.00  0.00     0.005 C 
HETATM   11  C   UNL     1      15.195  -7.171 -17.747  1.00  0.00     0.042 C 
HETATM   12  C   UNL     1      13.830  -5.345 -16.387  1.00  0.00     0.065 A 
HETATM   13  N   UNL     1      13.641  -4.605 -15.333  1.00  0.00    -0.294 N 
HETATM   14  HN  UNL     1      12.849  -3.964 -15.285  1.00  0.00     0.187 HD
BRANCH  12  15
HETATM   15  C   UNL     1      12.767  -5.224 -17.450  1.00  0.00    -0.006 A 
HETATM   16  C   UNL     1      11.917  -6.312 -17.691  1.00  0.00     0.016 A 
HETATM   17  C   UNL     1      11.056  -6.335 -18.805  1.00  0.00     0.039 A 
HETATM   18  C   UNL     1      11.048  -5.286 -19.731  1.00  0.00     0.091 A 
HETATM   19  C   UNL     1      11.902  -4.203 -19.493  1.00  0.00     0.108 A 
HETATM   20  C   UNL     1      12.736  -4.166 -18.355  1.00  0.00     0.041 A 
BRANCH  18  21
HETATM   21  O   UNL     1      10.301  -5.273 -20.869  1.00  0.00    -0.354 OA
HETATM   22  C   UNL     1       8.935  -5.661 -20.810  1.00  0.00     0.210 C 
ENDBRANCH  18  21
BRANCH  19  23
HETATM   23  S   UNL     1      12.046  -2.818 -20.608  1.00  0.00     0.248 S 
HETATM   24  O   UNL     1      10.859  -2.697 -21.427  1.00  0.00    -0.205 OA
HETATM   25  O   UNL     1      12.507  -1.687 -19.828  1.00  0.00    -0.205 OA
BRANCH  23  26
HETATM   26  N   UNL     1      13.278  -3.348 -21.654  1.00  0.00    -0.181 NA
HETATM   27  HN  UNL     1      13.372  -2.691 -22.428  1.00  0.00     0.146 HD
BRANCH  26  28
HETATM   28  C   UNL     1      14.491  -3.829 -21.071  1.00  0.00     0.028 A 
HETATM   29  C   UNL     1      15.328  -2.914 -20.430  1.00  0.00     0.025 A 
HETATM   30  C   UNL     1      16.556  -3.327 -19.903  1.00  0.00     0.008 A 
HETATM   31  C   UNL     1      16.956  -4.660 -20.011  1.00  0.00    -0.061 A 
HETATM   32  C   UNL     1      18.281  -5.119 -19.474  1.00  0.00     0.048 C 
HETATM   33  C   UNL     1      16.098  -5.579 -20.630  1.00  0.00     0.015 A 
HETATM   34  C   UNL     1      14.859  -5.177 -21.160  1.00  0.00    -0.039 A 
HETATM   35  C   UNL     1      13.987  -6.201 -21.829  1.00  0.00     0.050 C 
ENDBRANCH  26  28
ENDBRANCH  23  26
ENDBRANCH  19  23
ENDBRANCH  12  15
ENDBRANCH   2   3
TORSDOF 6
ENDMDL
MODEL 5
REMARK VINA RESULT:      -7.3      1.024      2.856
REMARK  6 active torsions:
REMARK  status: ('A' for Active; 'I' for Inactive)
REMARK    1  A    between atoms: C_2  and  N_3 
REMARK    2  A    between atoms: C_12  and  C_13 
REMARK    3  A    between atoms: C_16  and  O_31 
REMARK    4  A    between atoms: C_17  and  S_19 
REMARK    5  A    between atoms: S_19  and  N_22 
REMARK    6  A    between atoms: N_22  and  C_23 
ROOT
HETATM    1  C   UNL     1      11.527  -1.819 -20.428  1.00  0.00     0.028 C 
HETATM    2  C   UNL     1      11.304  -3.167 -19.765  1.00  0.00     0.148 C 
ENDROOT
BRANCH   2   3
HETATM    3  N   UNL     1      12.229  -3.413 -18.664  1.00  0.00    -0.257 N 
HETATM    4  C   UNL     1      12.255  -4.663 -18.074  1.00  0.00     0.268 A 
HETATM    5  O   UNL     1      11.469  -5.569 -18.350  1.00  0.00    -0.266 OA
HETATM    6  C   UNL     1      13.339  -4.891 -17.084  1.00  0.00     0.020 A 
HETATM    7  C   UNL     1      13.444  -6.309 -16.583  1.00  0.00     0.045 C 
HETATM    8  C   UNL     1      14.175  -3.901 -16.716  1.00  0.00    -0.017 A 
HETATM    9  C   UNL     1      14.787  -6.601 -15.921  1.00  0.00     0.005 C 
HETATM   10  C   UNL     1      15.132  -5.485 -14.945  1.00  0.00     0.005 C 
HETATM   11  C   UNL     1      15.244  -4.143 -15.680  1.00  0.00     0.042 C 
HETATM   12  C   UNL     1      13.964  -2.578 -17.401  1.00  0.00     0.065 A 
HETATM   13  N   UNL     1      13.047  -2.376 -18.302  1.00  0.00    -0.294 N 
HETATM   14  HN  UNL     1      12.939  -1.457 -18.733  1.00  0.00     0.187 HD
BRANCH  12  15
HETATM   15  C   UNL     1      14.861  -1.398 -17.126  1.00  0.00    -0.006 A 
HETATM   16  C   UNL     1      14.557  -0.545 -16.055  1.00  0.00     0.016 A 
HETATM   17  C   UNL     1      15.227   0.681 -15.884  1.00  0.00     0.039 A 
HETATM   18  C   UNL     1      16.196   1.106 -16.799  1.00  0.00     0.091 A 
HETATM   19  C   UNL     1      16.495   0.257 -17.870  1.00  0.00     0.108 A 
HETATM   20  C   UNL     1      15.848  -0.987 -18.018  1.00  0.00     0.041 A 
BRANCH  18  21
HETATM   21  O   UNL     1      16.830   2.310 -16.740  1.00  0.00    -0.354 OA
HETATM   22  C   UNL     1      16.076   3.504 -16.898  1.00  0.00     0.210 C 
ENDBRANCH  18  21
BRANCH  19  23
HETATM   23  S   UNL     1      17.665   0.683 -19.148  1.00  0.00     0.248 S 
HETATM   24  O   UNL     1      17.115   1.693 -20.027  1.00  0.00    -0.205 OA
HETATM   25  O   UNL     1      18.943   0.904 -18.501  1.00  0.00    -0.205 OA
BRANCH  23  26
HETATM   26  N   UNL     1      17.713  -0.750 -20.062  1.00  0.00    -0.181 NA
HETATM   27  HN  UNL     1      16.944  -0.752 -20.731  1.00  0.00     0.146 HD
BRANCH  26  28
HETATM   28  C   UNL     1      18.983  -1.196 -20.543  1.00  0.00     0.028 A 
HETATM   29  C   UNL     1      19.461  -0.666 -21.743  1.00  0.00     0.025 A 
HETATM   30  C   UNL     1      20.667  -1.121 -22.286  1.00  0.00     0.008 A 
HETATM   31  C   UNL     1      21.406  -2.108 -21.633  1.00  0.00    -0.061 A 
HETATM   32  C   UNL     1      22.690  -2.628 -22.211  1.00  0.00     0.048 C 
HETATM   33  C   UNL     1      20.934  -2.615 -20.414  1.00  0.00     0.015 A 
HETATM   34  C   UNL     1      19.726  -2.163 -19.855  1.00  0.00    -0.039 A 
HETATM   35  C   UNL     1      19.259  -2.754 -18.555  1.00  0.00     0.050 C 
ENDBRANCH  26  28
ENDBRANCH  23  26
ENDBRANCH  19  23
ENDBRANCH  12  15
ENDBRANCH   2   3
TORSDOF 6
ENDMDL
MODEL 6
REMARK VINA RESULT:      -7.3      3.861      5.951
REMARK  6 active torsions:
REMARK  status: ('A' for Active; 'I' for Inactive)
REMARK    1  A    between atoms: C_2  and  N_3 
REMARK    2  A    between atoms: C_12  and  C_13 
REMARK    3  A    between atoms: C_16  and  O_31 
REMARK    4  A    between atoms: C_17  and  S_19 
REMARK    5  A    between atoms: S_19  and  N_22 
REMARK    6  A    between atoms: N_22  and  C_23 
ROOT
HETATM    1  C   UNL     1      18.255  -9.477 -15.502  1.00  0.00     0.028 C 
HETATM    2  C   UNL     1      17.246  -8.947 -16.505  1.00  0.00     0.148 C 
ENDROOT
BRANCH   2   3
HETATM    3  N   UNL     1      16.711  -7.643 -16.130  1.00  0.00    -0.257 N 
HETATM    4  C   UNL     1      15.355  -7.515 -15.893  1.00  0.00     0.268 A 
HETATM    5  O   UNL     1      14.537  -8.416 -16.077  1.00  0.00    -0.266 OA
HETATM    6  C   UNL     1      14.913  -6.206 -15.346  1.00  0.00     0.020 A 
HETATM    7  C   UNL     1      13.461  -6.152 -14.942  1.00  0.00     0.045 C 
HETATM    8  C   UNL     1      15.773  -5.181 -15.192  1.00  0.00    -0.017 A 
HETATM    9  C   UNL     1      13.150  -4.980 -14.018  1.00  0.00     0.005 C 
HETATM   10  C   UNL     1      13.770  -3.706 -14.576  1.00  0.00     0.005 C 
HETATM   11  C   UNL     1      15.295  -3.848 -14.672  1.00  0.00     0.042 C 
HETATM   12  C   UNL     1      17.202  -5.464 -15.567  1.00  0.00     0.065 A 
HETATM   13  N   UNL     1      17.612  -6.619 -16.006  1.00  0.00    -0.294 N 
HETATM   14  HN  UNL     1      18.592  -6.759 -16.254  1.00  0.00     0.187 HD
BRANCH  12  15
HETATM   15  C   UNL     1      18.281  -4.426 -15.394  1.00  0.00    -0.006 A 
HETATM   16  C   UNL     1      18.895  -4.282 -14.143  1.00  0.00     0.016 A 
HETATM   17  C   UNL     1      19.748  -3.196 -13.867  1.00  0.00     0.039 A 
HETATM   18  C   UNL     1      19.982  -2.203 -14.825  1.00  0.00     0.091 A 
HETATM   19  C   UNL     1      19.364  -2.344 -16.072  1.00  0.00     0.108 A 
HETATM   20  C   UNL     1      18.540  -3.453 -16.357  1.00  0.00     0.041 A 
BRANCH  18  21
HETATM   21  O   UNL     1      20.733  -1.088 -14.605  1.00  0.00    -0.354 OA
HETATM   22  C   UNL     1      22.047  -1.224 -14.081  1.00  0.00     0.210 C 
ENDBRANCH  18  21
BRANCH  19  23
HETATM   23  S   UNL     1      19.520  -1.135 -17.374  1.00  0.00     0.248 S 
HETATM   24  O   UNL     1      20.863  -0.598 -17.412  1.00  0.00    -0.205 OA
HETATM   25  O   UNL     1      18.936  -1.714 -18.567  1.00  0.00    -0.205 OA
BRANCH  23  26
HETATM   26  N   UNL     1      18.535   0.124 -16.793  1.00  0.00    -0.181 NA
HETATM   27  HN  UNL     1      18.796   0.998 -17.248  1.00  0.00     0.146 HD
BRANCH  26  28
HETATM   28  C   UNL     1      17.135  -0.132 -16.653  1.00  0.00     0.028 A 
HETATM   29  C   UNL     1      16.386  -0.374 -17.806  1.00  0.00     0.025 A 
HETATM   30  C   UNL     1      15.003  -0.563 -17.724  1.00  0.00     0.008 A 
HETATM   31  C   UNL     1      14.357  -0.514 -16.488  1.00  0.00    -0.061 A 
HETATM   32  C   UNL     1      12.870  -0.690 -16.380  1.00  0.00     0.048 C 
HETATM   33  C   UNL     1      15.119  -0.300 -15.331  1.00  0.00     0.015 A 
HETATM   34  C   UNL     1      16.511  -0.112 -15.399  1.00  0.00    -0.039 A 
HETATM   35  C   UNL     1      17.277   0.131 -14.130  1.00  0.00     0.050 C 
ENDBRANCH  26  28
ENDBRANCH  23  26
ENDBRANCH  19  23
ENDBRANCH  12  15
ENDBRANCH   2   3
TORSDOF 6
ENDMDL
MODEL 7
REMARK VINA RESULT:      -7.3      3.909      8.666
REMARK  6 active torsions:
REMARK  status: ('A' for Active; 'I' for Inactive)
REMARK    1  A    between atoms: C_2  and  N_3 
REMARK    2  A    between atoms: C_12  and  C_13 
REMARK    3  A    between atoms: C_16  and  O_31 
REMARK    4  A    between atoms: C_17  and  S_19 
REMARK    5  A    between atoms: S_19  and  N_22 
REMARK    6  A    between atoms: N_22  and  C_23 
ROOT
HETATM    1  C   UNL     1      16.346   1.950 -18.997  1.00  0.00     0.028 C 
HETATM    2  C   UNL     1      15.197   1.803 -18.015  1.00  0.00     0.148 C 
ENDROOT
BRANCH   2   3
HETATM    3  N   UNL     1      14.948   0.414 -17.643  1.00  0.00    -0.257 N 
HETATM    4  C   UNL     1      14.928   0.070 -16.304  1.00  0.00     0.268 A 
HETATM    5  O   UNL     1      15.210   0.845 -15.391  1.00  0.00    -0.266 OA
HETATM    6  C   UNL     1      14.496  -1.319 -15.999  1.00  0.00     0.020 A 
HETATM    7  C   UNL     1      14.324  -1.613 -14.530  1.00  0.00     0.045 C 
HETATM    8  C   UNL     1      14.241  -2.208 -16.977  1.00  0.00    -0.017 A 
HETATM    9  C   UNL     1      13.494  -2.867 -14.275  1.00  0.00     0.005 C 
HETATM   10  C   UNL     1      13.987  -4.000 -15.164  1.00  0.00     0.005 C 
HETATM   11  C   UNL     1      13.841  -3.624 -16.644  1.00  0.00     0.042 C 
HETATM   12  C   UNL     1      14.381  -1.692 -18.383  1.00  0.00     0.065 A 
HETATM   13  N   UNL     1      14.717  -0.466 -18.667  1.00  0.00    -0.294 N 
HETATM   14  HN  UNL     1      14.805  -0.166 -19.638  1.00  0.00     0.187 HD
BRANCH  12  15
HETATM   15  C   UNL     1      14.075  -2.562 -19.575  1.00  0.00    -0.006 A 
HETATM   16  C   UNL     1      15.122  -2.954 -20.421  1.00  0.00     0.016 A 
HETATM   17  C   UNL     1      14.870  -3.581 -21.656  1.00  0.00     0.039 A 
HETATM   18  C   UNL     1      13.560  -3.801 -22.098  1.00  0.00     0.091 A 
HETATM   19  C   UNL     1      12.515  -3.404 -21.255  1.00  0.00     0.108 A 
HETATM   20  C   UNL     1      12.773  -2.810 -20.002  1.00  0.00     0.041 A 
BRANCH  18  21
HETATM   21  O   UNL     1      13.239  -4.332 -23.310  1.00  0.00    -0.354 OA
HETATM   22  C   UNL     1      13.968  -5.450 -23.797  1.00  0.00     0.210 C 
ENDBRANCH  18  21
BRANCH  19  23
HETATM   23  S   UNL     1      10.796  -3.567 -21.702  1.00  0.00     0.248 S 
HETATM   24  O   UNL     1       9.944  -3.250 -20.576  1.00  0.00    -0.205 OA
HETATM   25  O   UNL     1      10.615  -2.878 -22.964  1.00  0.00    -0.205 OA
BRANCH  23  26
HETATM   26  N   UNL     1      10.658  -5.247 -21.929  1.00  0.00    -0.181 NA
HETATM   27  HN  UNL     1      11.579  -5.641 -22.114  1.00  0.00     0.146 HD
BRANCH  26  28
HETATM   28  C   UNL     1       9.816  -5.977 -21.034  1.00  0.00     0.028 A 
HETATM   29  C   UNL     1       8.451  -6.055 -21.321  1.00  0.00     0.025 A 
HETATM   30  C   UNL     1       7.579  -6.701 -20.440  1.00  0.00     0.008 A 
HETATM   31  C   UNL     1       8.064  -7.278 -19.265  1.00  0.00    -0.061 A 
HETATM   32  C   UNL     1       7.141  -7.956 -18.294  1.00  0.00     0.048 C 
HETATM   33  C   UNL     1       9.439  -7.223 -18.998  1.00  0.00     0.015 A 
HETATM   34  C   UNL     1      10.327  -6.579 -19.878  1.00  0.00    -0.039 A 
HETATM   35  C   UNL     1      11.788  -6.533 -19.533  1.00  0.00     0.050 C 
ENDBRANCH  26  28
ENDBRANCH  23  26
ENDBRANCH  19  23
ENDBRANCH  12  15
ENDBRANCH   2   3
TORSDOF 6
ENDMDL
MODEL 8
REMARK VINA RESULT:      -7.3     14.514     17.143
REMARK  6 active torsions:
REMARK  status: ('A' for Active; 'I' for Inactive)
REMARK    1  A    between atoms: C_2  and  N_3 
REMARK    2  A    between atoms: C_12  and  C_13 
REMARK    3  A    between atoms: C_16  and  O_31 
REMARK    4  A    between atoms: C_17  and  S_19 
REMARK    5  A    between atoms: S_19  and  N_22 
REMARK    6  A    between atoms: N_22  and  C_23 
ROOT
HETATM    1  C   UNL     1      17.543  -8.457 -28.090  1.00  0.00     0.028 C 
HETATM    2  C   UNL     1      16.259  -7.735 -28.463  1.00  0.00     0.148 C 
ENDROOT
BRANCH   2   3
HETATM    3  N   UNL     1      16.046  -7.676 -29.905  1.00  0.00    -0.257 N 
HETATM    4  C   UNL     1      16.297  -6.492 -30.573  1.00  0.00     0.268 A 
HETATM    5  O   UNL     1      16.596  -5.437 -30.015  1.00  0.00    -0.266 OA
HETATM    6  C   UNL     1      16.227  -6.557 -32.056  1.00  0.00     0.020 A 
HETATM    7  C   UNL     1      16.666  -5.299 -32.762  1.00  0.00     0.045 C 
HETATM    8  C   UNL     1      15.842  -7.679 -32.694  1.00  0.00    -0.017 A 
HETATM    9  C   UNL     1      16.985  -5.531 -34.235  1.00  0.00     0.005 C 
HETATM   10  C   UNL     1      15.871  -6.344 -34.880  1.00  0.00     0.005 C 
HETATM   11  C   UNL     1      15.740  -7.712 -34.199  1.00  0.00     0.042 C 
HETATM   12  C   UNL     1      15.533  -8.859 -31.813  1.00  0.00     0.065 A 
HETATM   13  N   UNL     1      15.631  -8.830 -30.516  1.00  0.00    -0.294 N 
HETATM   14  HN  UNL     1      15.403  -9.656 -29.961  1.00  0.00     0.187 HD
BRANCH  12  15
HETATM   15  C   UNL     1      15.142 -10.194 -32.394  1.00  0.00    -0.006 A 
HETATM   16  C   UNL     1      13.881 -10.336 -32.991  1.00  0.00     0.016 A 
HETATM   17  C   UNL     1      13.382 -11.601 -33.354  1.00  0.00     0.039 A 
HETATM   18  C   UNL     1      14.115 -12.765 -33.098  1.00  0.00     0.091 A 
HETATM   19  C   UNL     1      15.371 -12.623 -32.497  1.00  0.00     0.108 A 
HETATM   20  C   UNL     1      15.883 -11.351 -32.169  1.00  0.00     0.041 A 
BRANCH  18  21
HETATM   21  O   UNL     1      13.665 -14.025 -33.352  1.00  0.00    -0.354 OA
HETATM   22  C   UNL     1      13.431 -14.425 -34.696  1.00  0.00     0.210 C 
ENDBRANCH  18  21
BRANCH  19  23
HETATM   23  S   UNL     1      16.397 -14.015 -32.057  1.00  0.00     0.248 S 
HETATM   24  O   UNL     1      16.844 -14.713 -33.243  1.00  0.00    -0.205 OA
HETATM   25  O   UNL     1      17.363 -13.542 -31.086  1.00  0.00    -0.205 OA
BRANCH  23  26
HETATM   26  N   UNL     1      15.273 -15.047 -31.308  1.00  0.00    -0.181 NA
HETATM   27  HN  UNL     1      15.324 -15.972 -31.733  1.00  0.00     0.146 HD
BRANCH  26  28
HETATM   28  C   UNL     1      15.168 -15.002 -29.882  1.00  0.00     0.028 A 
HETATM   29  C   UNL     1      14.452 -13.953 -29.302  1.00  0.00     0.025 A 
HETATM   30  C   UNL     1      14.378 -13.830 -27.912  1.00  0.00     0.008 A 
HETATM   31  C   UNL     1      15.019 -14.757 -27.088  1.00  0.00    -0.061 A 
HETATM   32  C   UNL     1      14.973 -14.631 -25.592  1.00  0.00     0.048 C 
HETATM   33  C   UNL     1      15.712 -15.824 -27.676  1.00  0.00     0.015 A 
HETATM   34  C   UNL     1      15.790 -15.961 -29.074  1.00  0.00    -0.039 A 
HETATM   35  C   UNL     1      16.560 -17.114 -29.651  1.00  0.00     0.050 C 
ENDBRANCH  26  28
ENDBRANCH  23  26
ENDBRANCH  19  23
ENDBRANCH  12  15
ENDBRANCH   2   3
TORSDOF 6
ENDMDL
MODEL 9
REMARK VINA RESULT:      -7.3      6.419      8.930
REMARK  6 active torsions:
REMARK  status: ('A' for Active; 'I' for Inactive)
REMARK    1  A    between atoms: C_2  and  N_3 
REMARK    2  A    between atoms: C_12  and  C_13 
REMARK    3  A    between atoms: C_16  and  O_31 
REMARK    4  A    between atoms: C_17  and  S_19 
REMARK    5  A    between atoms: S_19  and  N_22 
REMARK    6  A    between atoms: N_22  and  C_23 
ROOT
HETATM    1  C   UNL     1      15.250 -11.287 -26.835  1.00  0.00     0.028 C 
HETATM    2  C   UNL     1      15.758  -9.916 -27.246  1.00  0.00     0.148 C 
ENDROOT
BRANCH   2   3
HETATM    3  N   UNL     1      15.372  -8.868 -26.308  1.00  0.00    -0.257 N 
HETATM    4  C   UNL     1      15.134  -7.593 -26.785  1.00  0.00     0.268 A 
HETATM    5  O   UNL     1      15.326  -7.248 -27.951  1.00  0.00    -0.266 OA
HETATM    6  C   UNL     1      14.577  -6.627 -25.804  1.00  0.00     0.020 A 
HETATM    7  C   UNL     1      14.173  -5.298 -26.391  1.00  0.00     0.045 C 
HETATM    8  C   UNL     1      14.414  -6.955 -24.508  1.00  0.00    -0.017 A 
HETATM    9  C   UNL     1      13.238  -4.511 -25.477  1.00  0.00     0.005 C 
HETATM   10  C   UNL     1      13.786  -4.512 -24.057  1.00  0.00     0.005 C 
HETATM   11  C   UNL     1      13.883  -5.946 -23.520  1.00  0.00     0.042 C 
HETATM   12  C   UNL     1      14.791  -8.364 -24.137  1.00  0.00     0.065 A 
HETATM   13  N   UNL     1      15.239  -9.234 -24.994  1.00  0.00    -0.294 N 
HETATM   14  HN  UNL     1      15.488 -10.176 -24.692  1.00  0.00     0.187 HD
BRANCH  12  15
HETATM   15  C   UNL     1      14.610  -8.883 -22.734  1.00  0.00    -0.006 A 
HETATM   16  C   UNL     1      13.338  -9.308 -22.322  1.00  0.00     0.016 A 
HETATM   17  C   UNL     1      13.066  -9.597 -20.972  1.00  0.00     0.039 A 
HETATM   18  C   UNL     1      14.048  -9.436 -19.988  1.00  0.00     0.091 A 
HETATM   19  C   UNL     1      15.315  -9.007 -20.399  1.00  0.00     0.108 A 
HETATM   20  C   UNL     1      15.594  -8.753 -21.758  1.00  0.00     0.041 A 
BRANCH  18  21
HETATM   21  O   UNL     1      13.836  -9.624 -18.656  1.00  0.00    -0.354 OA
HETATM   22  C   UNL     1      12.927 -10.629 -18.229  1.00  0.00     0.210 C 
ENDBRANCH  18  21
BRANCH  19  23
HETATM   23  S   UNL     1      16.652  -8.701 -19.258  1.00  0.00     0.248 S 
HETATM   24  O   UNL     1      16.728  -9.754 -18.268  1.00  0.00    -0.205 OA
HETATM   25  O   UNL     1      17.819  -8.363 -20.048  1.00  0.00    -0.205 OA
BRANCH  23  26
HETATM   26  N   UNL     1      16.089  -7.327 -18.430  1.00  0.00    -0.181 NA
HETATM   27  HN  UNL     1      16.215  -7.458 -17.427  1.00  0.00     0.146 HD
BRANCH  26  28
HETATM   28  C   UNL     1      16.430  -6.042 -18.955  1.00  0.00     0.028 A 
HETATM   29  C   UNL     1      17.725  -5.563 -18.749  1.00  0.00     0.025 A 
HETATM   30  C   UNL     1      18.085  -4.284 -19.186  1.00  0.00     0.008 A 
HETATM   31  C   UNL     1      17.153  -3.474 -19.836  1.00  0.00    -0.061 A 
HETATM   32  C   UNL     1      17.511  -2.089 -20.292  1.00  0.00     0.048 C 
HETATM   33  C   UNL     1      15.863  -3.972 -20.066  1.00  0.00     0.015 A 
HETATM   34  C   UNL     1      15.490  -5.258 -19.635  1.00  0.00    -0.039 A 
HETATM   35  C   UNL     1      14.089  -5.734 -19.893  1.00  0.00     0.050 C 
ENDBRANCH  26  28
ENDBRANCH  23  26
ENDBRANCH  19  23
ENDBRANCH  12  15
ENDBRANCH   2   3
TORSDOF 6
ENDMDL
