MODEL 1
REMARK VINA RESULT:      -7.4      0.000      0.000
REMARK  9 active torsions:
REMARK  status: ('A' for Active; 'I' for Inactive)
REMARK    1  A    between atoms: C_4  and  C_7 
REMARK    2  A    between atoms: C_7  and  O_9 
REMARK    3  A    between atoms: O_9  and  C_10 
REMARK    4  A    between atoms: C_13  and  C_16 
REMARK    5  A    between atoms: C_16  and  C_18 
REMARK    6  A    between atoms: C_18  and  O_19 
REMARK    7  A    between atoms: O_19  and  C_20 
REMARK    8  A    between atoms: C_20  and  C_22 
REMARK    9  A    between atoms: C_25  and  N_28 
ROOT
HETATM    1  C   UNL     1      14.734  -8.305 -16.329  1.00  0.00     0.000 A 
HETATM    2  C   UNL     1      16.113  -8.125 -16.313  1.00  0.00     0.001 A 
HETATM    3  C   UNL     1      16.781  -7.804 -17.496  1.00  0.00     0.017 A 
HETATM    4  C   UNL     1      16.081  -7.653 -18.707  1.00  0.00     0.039 A 
HETATM    5  C   UNL     1      14.698  -7.862 -18.722  1.00  0.00     0.017 A 
HETATM    6  C   UNL     1      14.029  -8.183 -17.530  1.00  0.00     0.001 A 
ENDROOT
BRANCH   4   7
HETATM    7  C   UNL     1      16.876  -7.221 -19.893  1.00  0.00     0.298 C 
HETATM    8  O   UNL     1      17.591  -8.022 -20.482  1.00  0.00    -0.259 OA
BRANCH   7   9
HETATM    9  O   UNL     1      16.730  -5.867 -20.190  1.00  0.00    -0.275 OA
BRANCH   9  10
HETATM   10  C   UNL     1      15.641  -5.458 -21.004  1.00  0.00     0.079 A 
HETATM   11  C   UNL     1      14.936  -6.335 -21.822  1.00  0.00     0.038 A 
HETATM   12  C   UNL     1      13.938  -5.850 -22.674  1.00  0.00     0.018 A 
HETATM   13  C   UNL     1      13.591  -4.490 -22.691  1.00  0.00     0.012 A 
HETATM   14  C   UNL     1      14.240  -3.628 -21.796  1.00  0.00     0.018 A 
HETATM   15  C   UNL     1      15.267  -4.112 -20.957  1.00  0.00     0.038 A 
BRANCH  13  16
HETATM   16  C   UNL     1      12.555  -4.067 -23.694  1.00  0.00     0.183 C 
HETATM   17  O   UNL     1      12.752  -4.311 -24.887  1.00  0.00    -0.290 OA
BRANCH  16  18
HETATM   18  C   UNL     1      11.276  -3.361 -23.250  1.00  0.00     0.263 C 
BRANCH  18  19
HETATM   19  O   UNL     1      10.460  -4.236 -22.445  1.00  0.00    -0.310 OA
BRANCH  19  20
HETATM   20  C   UNL     1       9.952  -3.620 -21.348  1.00  0.00     0.293 C 
HETATM   21  O   UNL     1       8.884  -3.023 -21.312  1.00  0.00    -0.259 OA
BRANCH  20  22
HETATM   22  C   UNL     1      10.871  -3.674 -20.181  1.00  0.00     0.039 A 
HETATM   23  C   UNL     1      11.369  -2.554 -19.510  1.00  0.00     0.020 A 
HETATM   24  C   UNL     1      12.334  -2.706 -18.483  1.00  0.00     0.031 A 
HETATM   25  C   UNL     1      12.816  -3.974 -18.103  1.00  0.00     0.046 A 
HETATM   26  C   UNL     1      12.250  -5.078 -18.761  1.00  0.00     0.031 A 
HETATM   27  C   UNL     1      11.308  -4.935 -19.786  1.00  0.00     0.020 A 
BRANCH  25  28
HETATM   28  N   UNL     1      13.860  -4.162 -17.127  1.00  0.00    -0.244 N 
HETATM   29  C   UNL     1      15.180  -3.782 -17.257  1.00  0.00     0.266 A 
HETATM   30  O   UNL     1      15.767  -3.178 -18.137  1.00  0.00    -0.267 OA
HETATM   31  C   UNL     1      15.886  -4.255 -16.056  1.00  0.00     0.048 A 
HETATM   32  C   UNL     1      17.213  -4.170 -15.669  1.00  0.00     0.018 A 
HETATM   33  C   UNL     1      14.960  -4.886 -15.259  1.00  0.00     0.048 A 
HETATM   34  C   UNL     1      17.574  -4.756 -14.443  1.00  0.00     0.001 A 
HETATM   35  C   UNL     1      16.616  -5.402 -13.637  1.00  0.00     0.001 A 
HETATM   36  C   UNL     1      15.285  -5.471 -14.046  1.00  0.00     0.018 A 
HETATM   37  C   UNL     1      13.676  -4.822 -15.927  1.00  0.00     0.266 A 
HETATM   38  O   UNL     1      12.700  -5.318 -15.391  1.00  0.00    -0.267 OA
ENDBRANCH  25  28
ENDBRANCH  20  22
ENDBRANCH  19  20
ENDBRANCH  18  19
ENDBRANCH  16  18
ENDBRANCH  13  16
ENDBRANCH   9  10
ENDBRANCH   7   9
ENDBRANCH   4   7
TORSDOF 9
ENDMDL
MODEL 2
REMARK VINA RESULT:      -7.4      1.860      4.573
REMARK  9 active torsions:
REMARK  status: ('A' for Active; 'I' for Inactive)
REMARK    1  A    between atoms: C_4  and  C_7 
REMARK    2  A    between atoms: C_7  and  O_9 
REMARK    3  A    between atoms: O_9  and  C_10 
REMARK    4  A    between atoms: C_13  and  C_16 
REMARK    5  A    between atoms: C_16  and  C_18 
REMARK    6  A    between atoms: C_18  and  O_19 
REMARK    7  A    between atoms: O_19  and  C_20 
REMARK    8  A    between atoms: C_20  and  C_22 
REMARK    9  A    between atoms: C_25  and  N_28 
ROOT
HETATM    1  C   UNL     1      14.413  -5.239 -13.515  1.00  0.00     0.000 A 
HETATM    2  C   UNL     1      13.649  -5.549 -14.634  1.00  0.00     0.001 A 
HETATM    3  C   UNL     1      13.570  -4.638 -15.689  1.00  0.00     0.017 A 
HETATM    4  C   UNL     1      14.258  -3.412 -15.643  1.00  0.00     0.039 A 
HETATM    5  C   UNL     1      15.003  -3.095 -14.503  1.00  0.00     0.017 A 
HETATM    6  C   UNL     1      15.082  -4.013 -13.444  1.00  0.00     0.001 A 
ENDROOT
BRANCH   4   7
HETATM    7  C   UNL     1      14.180  -2.552 -16.859  1.00  0.00     0.298 C 
HETATM    8  O   UNL     1      15.199  -2.257 -17.472  1.00  0.00    -0.259 OA
BRANCH   7   9
HETATM    9  O   UNL     1      12.885  -2.132 -17.156  1.00  0.00    -0.275 OA
BRANCH   9  10
HETATM   10  C   UNL     1      12.353  -2.409 -18.443  1.00  0.00     0.079 A 
HETATM   11  C   UNL     1      12.017  -1.412 -19.353  1.00  0.00     0.038 A 
HETATM   12  C   UNL     1      11.404  -1.747 -20.565  1.00  0.00     0.018 A 
HETATM   13  C   UNL     1      11.159  -3.085 -20.913  1.00  0.00     0.012 A 
HETATM   14  C   UNL     1      11.586  -4.089 -20.032  1.00  0.00     0.018 A 
HETATM   15  C   UNL     1      12.178  -3.750 -18.796  1.00  0.00     0.038 A 
BRANCH  13  16
HETATM   16  C   UNL     1      10.434  -3.328 -22.207  1.00  0.00     0.183 C 
HETATM   17  O   UNL     1       9.206  -3.448 -22.183  1.00  0.00    -0.290 OA
BRANCH  16  18
HETATM   18  C   UNL     1      11.193  -3.411 -23.528  1.00  0.00     0.263 C 
BRANCH  18  19
HETATM   19  O   UNL     1      11.848  -4.689 -23.664  1.00  0.00    -0.310 OA
BRANCH  19  20
HETATM   20  C   UNL     1      13.148  -4.576 -24.034  1.00  0.00     0.293 C 
HETATM   21  O   UNL     1      13.539  -4.417 -25.183  1.00  0.00    -0.259 OA
BRANCH  20  22
HETATM   22  C   UNL     1      14.087  -4.742 -22.894  1.00  0.00     0.039 A 
HETATM   23  C   UNL     1      14.581  -5.968 -22.442  1.00  0.00     0.020 A 
HETATM   24  C   UNL     1      15.376  -6.032 -21.271  1.00  0.00     0.031 A 
HETATM   25  C   UNL     1      15.698  -4.878 -20.533  1.00  0.00     0.046 A 
HETATM   26  C   UNL     1      15.232  -3.658 -21.049  1.00  0.00     0.031 A 
HETATM   27  C   UNL     1      14.433  -3.588 -22.196  1.00  0.00     0.020 A 
BRANCH  25  28
HETATM   28  N   UNL     1      16.429  -4.913 -19.291  1.00  0.00    -0.244 N 
HETATM   29  C   UNL     1      16.137  -5.693 -18.191  1.00  0.00     0.266 A 
HETATM   30  O   UNL     1      15.285  -6.543 -18.004  1.00  0.00    -0.267 OA
HETATM   31  C   UNL     1      17.096  -5.330 -17.136  1.00  0.00     0.048 A 
HETATM   32  C   UNL     1      17.254  -5.777 -15.835  1.00  0.00     0.018 A 
HETATM   33  C   UNL     1      17.923  -4.360 -17.651  1.00  0.00     0.048 A 
HETATM   34  C   UNL     1      18.278  -5.198 -15.066  1.00  0.00     0.001 A 
HETATM   35  C   UNL     1      19.116  -4.202 -15.604  1.00  0.00     0.001 A 
HETATM   36  C   UNL     1      18.941  -3.772 -16.919  1.00  0.00     0.018 A 
HETATM   37  C   UNL     1      17.511  -4.099 -19.015  1.00  0.00     0.266 A 
HETATM   38  O   UNL     1      18.117  -3.270 -19.672  1.00  0.00    -0.267 OA
ENDBRANCH  25  28
ENDBRANCH  20  22
ENDBRANCH  19  20
ENDBRANCH  18  19
ENDBRANCH  16  18
ENDBRANCH  13  16
ENDBRANCH   9  10
ENDBRANCH   7   9
ENDBRANCH   4   7
TORSDOF 9
ENDMDL
MODEL 3
REMARK VINA RESULT:      -7.4      2.002      3.427
REMARK  9 active torsions:
REMARK  status: ('A' for Active; 'I' for Inactive)
REMARK    1  A    between atoms: C_4  and  C_7 
REMARK    2  A    between atoms: C_7  and  O_9 
REMARK    3  A    between atoms: O_9  and  C_10 
REMARK    4  A    between atoms: C_13  and  C_16 
REMARK    5  A    between atoms: C_16  and  C_18 
REMARK    6  A    between atoms: C_18  and  O_19 
REMARK    7  A    between atoms: O_19  and  C_20 
REMARK    8  A    between atoms: C_20  and  C_22 
REMARK    9  A    between atoms: C_25  and  N_28 
ROOT
HETATM    1  C   UNL     1      18.915  -3.592 -15.511  1.00  0.00     0.000 A 
HETATM    2  C   UNL     1      17.748  -4.160 -15.013  1.00  0.00     0.001 A 
HETATM    3  C   UNL     1      16.794  -4.664 -15.898  1.00  0.00     0.017 A 
HETATM    4  C   UNL     1      16.996  -4.613 -17.290  1.00  0.00     0.039 A 
HETATM    5  C   UNL     1      18.159  -4.017 -17.785  1.00  0.00     0.017 A 
HETATM    6  C   UNL     1      19.118  -3.512 -16.892  1.00  0.00     0.001 A 
ENDROOT
BRANCH   4   7
HETATM    7  C   UNL     1      15.958  -5.262 -18.143  1.00  0.00     0.298 C 
HETATM    8  O   UNL     1      14.877  -5.582 -17.664  1.00  0.00    -0.259 OA
BRANCH   7   9
HETATM    9  O   UNL     1      16.376  -5.469 -19.456  1.00  0.00    -0.275 OA
BRANCH   9  10
HETATM   10  C   UNL     1      15.501  -5.117 -20.518  1.00  0.00     0.079 A 
HETATM   11  C   UNL     1      15.362  -3.813 -20.983  1.00  0.00     0.038 A 
HETATM   12  C   UNL     1      14.410  -3.517 -21.964  1.00  0.00     0.018 A 
HETATM   13  C   UNL     1      13.613  -4.523 -22.534  1.00  0.00     0.012 A 
HETATM   14  C   UNL     1      13.825  -5.847 -22.128  1.00  0.00     0.018 A 
HETATM   15  C   UNL     1      14.765  -6.143 -21.117  1.00  0.00     0.038 A 
BRANCH  13  16
HETATM   16  C   UNL     1      12.575  -4.083 -23.529  1.00  0.00     0.183 C 
HETATM   17  O   UNL     1      12.786  -4.277 -24.729  1.00  0.00    -0.290 OA
BRANCH  16  18
HETATM   18  C   UNL     1      11.278  -3.422 -23.069  1.00  0.00     0.263 C 
BRANCH  18  19
HETATM   19  O   UNL     1      10.589  -4.254 -22.115  1.00  0.00    -0.310 OA
BRANCH  19  20
HETATM   20  C   UNL     1       9.984  -3.538 -21.134  1.00  0.00     0.293 C 
HETATM   21  O   UNL     1       8.785  -3.302 -21.076  1.00  0.00    -0.259 OA
BRANCH  20  22
HETATM   22  C   UNL     1      10.948  -2.990 -20.144  1.00  0.00     0.039 A 
HETATM   23  C   UNL     1      11.233  -1.632 -19.980  1.00  0.00     0.020 A 
HETATM   24  C   UNL     1      12.256  -1.218 -19.092  1.00  0.00     0.031 A 
HETATM   25  C   UNL     1      13.011  -2.145 -18.349  1.00  0.00     0.046 A 
HETATM   26  C   UNL     1      12.658  -3.497 -18.498  1.00  0.00     0.031 A 
HETATM   27  C   UNL     1      11.659  -3.915 -19.384  1.00  0.00     0.020 A 
BRANCH  25  28
HETATM   28  N   UNL     1      14.116  -1.769 -17.504  1.00  0.00    -0.244 N 
HETATM   29  C   UNL     1      14.131  -1.774 -16.124  1.00  0.00     0.266 A 
HETATM   30  O   UNL     1      13.300  -2.127 -15.306  1.00  0.00    -0.267 OA
HETATM   31  C   UNL     1      15.432  -1.231 -15.703  1.00  0.00     0.048 A 
HETATM   32  C   UNL     1      15.975  -0.994 -14.452  1.00  0.00     0.018 A 
HETATM   33  C   UNL     1      16.140  -0.935 -16.844  1.00  0.00     0.048 A 
HETATM   34  C   UNL     1      17.264  -0.436 -14.395  1.00  0.00     0.001 A 
HETATM   35  C   UNL     1      17.977  -0.134 -15.571  1.00  0.00     0.001 A 
HETATM   36  C   UNL     1      17.411  -0.386 -16.821  1.00  0.00     0.018 A 
HETATM   37  C   UNL     1      15.316  -1.281 -17.985  1.00  0.00     0.266 A 
HETATM   38  O   UNL     1      15.752  -1.106 -19.109  1.00  0.00    -0.267 OA
ENDBRANCH  25  28
ENDBRANCH  20  22
ENDBRANCH  19  20
ENDBRANCH  18  19
ENDBRANCH  16  18
ENDBRANCH  13  16
ENDBRANCH   9  10
ENDBRANCH   7   9
ENDBRANCH   4   7
TORSDOF 9
ENDMDL
MODEL 4
REMARK VINA RESULT:      -7.2      2.040      3.334
REMARK  9 active torsions:
REMARK  status: ('A' for Active; 'I' for Inactive)
REMARK    1  A    between atoms: C_4  and  C_7 
REMARK    2  A    between atoms: C_7  and  O_9 
REMARK    3  A    between atoms: O_9  and  C_10 
REMARK    4  A    between atoms: C_13  and  C_16 
REMARK    5  A    between atoms: C_16  and  C_18 
REMARK    6  A    between atoms: C_18  and  O_19 
REMARK    7  A    between atoms: O_19  and  C_20 
REMARK    8  A    between atoms: C_20  and  C_22 
REMARK    9  A    between atoms: C_25  and  N_28 
ROOT
HETATM    1  C   UNL     1      19.768  -2.795 -16.805  1.00  0.00     0.000 A 
HETATM    2  C   UNL     1      19.064  -3.721 -16.043  1.00  0.00     0.001 A 
HETATM    3  C   UNL     1      18.055  -4.479 -16.638  1.00  0.00     0.017 A 
HETATM    4  C   UNL     1      17.740  -4.326 -18.001  1.00  0.00     0.039 A 
HETATM    5  C   UNL     1      18.433  -3.374 -18.755  1.00  0.00     0.017 A 
HETATM    6  C   UNL     1      19.448  -2.614 -18.154  1.00  0.00     0.001 A 
ENDROOT
BRANCH   4   7
HETATM    7  C   UNL     1      16.708  -5.248 -18.559  1.00  0.00     0.298 C 
HETATM    8  O   UNL     1      15.889  -5.778 -17.819  1.00  0.00    -0.259 OA
BRANCH   7   9
HETATM    9  O   UNL     1      16.824  -5.436 -19.935  1.00  0.00    -0.275 OA
BRANCH   9  10
HETATM   10  C   UNL     1      15.705  -5.153 -20.762  1.00  0.00     0.079 A 
HETATM   11  C   UNL     1      14.914  -6.145 -21.332  1.00  0.00     0.038 A 
HETATM   12  C   UNL     1      13.887  -5.801 -22.217  1.00  0.00     0.018 A 
HETATM   13  C   UNL     1      13.598  -4.460 -22.513  1.00  0.00     0.012 A 
HETATM   14  C   UNL     1      14.337  -3.463 -21.862  1.00  0.00     0.018 A 
HETATM   15  C   UNL     1      15.393  -3.810 -20.991  1.00  0.00     0.038 A 
BRANCH  13  16
HETATM   16  C   UNL     1      12.520  -4.206 -23.529  1.00  0.00     0.183 C 
HETATM   17  O   UNL     1      12.809  -4.276 -24.727  1.00  0.00    -0.290 OA
BRANCH  16  18
HETATM   18  C   UNL     1      11.093  -3.882 -23.095  1.00  0.00     0.263 C 
BRANCH  18  19
HETATM   19  O   UNL     1      10.613  -4.854 -22.144  1.00  0.00    -0.310 OA
BRANCH  19  20
HETATM   20  C   UNL     1       9.983  -4.286 -21.086  1.00  0.00     0.293 C 
HETATM   21  O   UNL     1       8.769  -4.194 -20.960  1.00  0.00    -0.259 OA
BRANCH  20  22
HETATM   22  C   UNL     1      10.929  -3.704 -20.098  1.00  0.00     0.039 A 
HETATM   23  C   UNL     1      11.092  -2.336 -19.864  1.00  0.00     0.020 A 
HETATM   24  C   UNL     1      12.105  -1.876 -18.988  1.00  0.00     0.031 A 
HETATM   25  C   UNL     1      12.970  -2.767 -18.324  1.00  0.00     0.046 A 
HETATM   26  C   UNL     1      12.738  -4.136 -18.539  1.00  0.00     0.031 A 
HETATM   27  C   UNL     1      11.749  -4.597 -19.416  1.00  0.00     0.020 A 
BRANCH  25  28
HETATM   28  N   UNL     1      14.067  -2.334 -17.495  1.00  0.00    -0.244 N 
HETATM   29  C   UNL     1      14.266  -2.654 -16.167  1.00  0.00     0.266 A 
HETATM   30  O   UNL     1      13.650  -3.381 -15.408  1.00  0.00    -0.267 OA
HETATM   31  C   UNL     1      15.458  -1.919 -15.719  1.00  0.00     0.048 A 
HETATM   32  C   UNL     1      16.097  -1.851 -14.492  1.00  0.00     0.018 A 
HETATM   33  C   UNL     1      15.925  -1.201 -16.795  1.00  0.00     0.048 A 
HETATM   34  C   UNL     1      17.225  -1.020 -14.389  1.00  0.00     0.001 A 
HETATM   35  C   UNL     1      17.691  -0.287 -15.498  1.00  0.00     0.001 A 
HETATM   36  C   UNL     1      17.035  -0.376 -16.725  1.00  0.00     0.018 A 
HETATM   37  C   UNL     1      15.054  -1.467 -17.922  1.00  0.00     0.266 A 
HETATM   38  O   UNL     1      15.287  -0.935 -18.994  1.00  0.00    -0.267 OA
ENDBRANCH  25  28
ENDBRANCH  20  22
ENDBRANCH  19  20
ENDBRANCH  18  19
ENDBRANCH  16  18
ENDBRANCH  13  16
ENDBRANCH   9  10
ENDBRANCH   7   9
ENDBRANCH   4   7
TORSDOF 9
ENDMDL
MODEL 5
REMARK VINA RESULT:      -7.2      2.565      7.167
REMARK  9 active torsions:
REMARK  status: ('A' for Active; 'I' for Inactive)
REMARK    1  A    between atoms: C_4  and  C_7 
REMARK    2  A    between atoms: C_7  and  O_9 
REMARK    3  A    between atoms: O_9  and  C_10 
REMARK    4  A    between atoms: C_13  and  C_16 
REMARK    5  A    between atoms: C_16  and  C_18 
REMARK    6  A    between atoms: C_18  and  O_19 
REMARK    7  A    between atoms: O_19  and  C_20 
REMARK    8  A    between atoms: C_20  and  C_22 
REMARK    9  A    between atoms: C_25  and  N_28 
ROOT
HETATM    1  C   UNL     1      14.053  -4.004 -22.086  1.00  0.00     0.000 A 
HETATM    2  C   UNL     1      14.153  -5.391 -22.096  1.00  0.00     0.001 A 
HETATM    3  C   UNL     1      15.078  -6.021 -21.263  1.00  0.00     0.017 A 
HETATM    4  C   UNL     1      15.908  -5.276 -20.405  1.00  0.00     0.039 A 
HETATM    5  C   UNL     1      15.821  -3.881 -20.420  1.00  0.00     0.017 A 
HETATM    6  C   UNL     1      14.889  -3.250 -21.258  1.00  0.00     0.001 A 
ENDROOT
BRANCH   4   7
HETATM    7  C   UNL     1      16.797  -6.051 -19.490  1.00  0.00     0.298 C 
HETATM    8  O   UNL     1      17.732  -6.700 -19.942  1.00  0.00    -0.259 OA
BRANCH   7   9
HETATM    9  O   UNL     1      16.416  -5.968 -18.152  1.00  0.00    -0.275 OA
BRANCH   9  10
HETATM   10  C   UNL     1      17.175  -5.150 -17.274  1.00  0.00     0.079 A 
HETATM   11  C   UNL     1      18.346  -4.506 -17.661  1.00  0.00     0.038 A 
HETATM   12  C   UNL     1      19.099  -3.796 -16.720  1.00  0.00     0.018 A 
HETATM   13  C   UNL     1      18.674  -3.673 -15.388  1.00  0.00     0.012 A 
HETATM   14  C   UNL     1      17.446  -4.244 -15.028  1.00  0.00     0.018 A 
HETATM   15  C   UNL     1      16.700  -4.986 -15.970  1.00  0.00     0.038 A 
BRANCH  13  16
HETATM   16  C   UNL     1      19.594  -2.947 -14.447  1.00  0.00     0.183 C 
HETATM   17  O   UNL     1      20.568  -3.551 -13.989  1.00  0.00    -0.290 OA
BRANCH  16  18
HETATM   18  C   UNL     1      19.342  -1.489 -14.072  1.00  0.00     0.263 C 
BRANCH  18  19
HETATM   19  O   UNL     1      18.603  -0.813 -15.109  1.00  0.00    -0.310 OA
BRANCH  19  20
HETATM   20  C   UNL     1      17.432  -0.291 -14.665  1.00  0.00     0.293 C 
HETATM   21  O   UNL     1      17.316   0.444 -13.694  1.00  0.00    -0.259 OA
BRANCH  20  22
HETATM   22  C   UNL     1      16.259  -0.765 -15.445  1.00  0.00     0.039 A 
HETATM   23  C   UNL     1      14.990  -0.998 -14.909  1.00  0.00     0.020 A 
HETATM   24  C   UNL     1      13.967  -1.564 -15.710  1.00  0.00     0.031 A 
HETATM   25  C   UNL     1      14.187  -1.903 -17.059  1.00  0.00     0.046 A 
HETATM   26  C   UNL     1      15.457  -1.601 -17.577  1.00  0.00     0.031 A 
HETATM   27  C   UNL     1      16.477  -1.057 -16.788  1.00  0.00     0.020 A 
BRANCH  25  28
HETATM   28  N   UNL     1      13.201  -2.560 -17.879  1.00  0.00    -0.244 N 
HETATM   29  C   UNL     1      12.989  -3.920 -17.973  1.00  0.00     0.266 A 
HETATM   30  O   UNL     1      13.496  -4.861 -17.388  1.00  0.00    -0.267 OA
HETATM   31  C   UNL     1      11.948  -4.127 -18.992  1.00  0.00     0.048 A 
HETATM   32  C   UNL     1      11.364  -5.275 -19.498  1.00  0.00     0.018 A 
HETATM   33  C   UNL     1      11.577  -2.887 -19.455  1.00  0.00     0.048 A 
HETATM   34  C   UNL     1      10.392  -5.125 -20.502  1.00  0.00     0.001 A 
HETATM   35  C   UNL     1      10.024  -3.849 -20.971  1.00  0.00     0.001 A 
HETATM   36  C   UNL     1      10.623  -2.706 -20.442  1.00  0.00     0.018 A 
HETATM   37  C   UNL     1      12.360  -1.892 -18.749  1.00  0.00     0.266 A 
HETATM   38  O   UNL     1      12.189  -0.712 -18.999  1.00  0.00    -0.267 OA
ENDBRANCH  25  28
ENDBRANCH  20  22
ENDBRANCH  19  20
ENDBRANCH  18  19
ENDBRANCH  16  18
ENDBRANCH  13  16
ENDBRANCH   9  10
ENDBRANCH   7   9
ENDBRANCH   4   7
TORSDOF 9
ENDMDL
MODEL 6
REMARK VINA RESULT:      -7.1      2.068      6.919
REMARK  9 active torsions:
REMARK  status: ('A' for Active; 'I' for Inactive)
REMARK    1  A    between atoms: C_4  and  C_7 
REMARK    2  A    between atoms: C_7  and  O_9 
REMARK    3  A    between atoms: O_9  and  C_10 
REMARK    4  A    between atoms: C_13  and  C_16 
REMARK    5  A    between atoms: C_16  and  C_18 
REMARK    6  A    between atoms: C_18  and  O_19 
REMARK    7  A    between atoms: O_19  and  C_20 
REMARK    8  A    between atoms: C_20  and  C_22 
REMARK    9  A    between atoms: C_25  and  N_28 
ROOT
HETATM    1  C   UNL     1      13.047  -4.027 -23.128  1.00  0.00     0.000 A 
HETATM    2  C   UNL     1      14.123  -4.129 -22.252  1.00  0.00     0.001 A 
HETATM    3  C   UNL     1      14.483  -5.378 -21.745  1.00  0.00     0.017 A 
HETATM    4  C   UNL     1      13.780  -6.541 -22.111  1.00  0.00     0.039 A 
HETATM    5  C   UNL     1      12.684  -6.428 -22.972  1.00  0.00     0.017 A 
HETATM    6  C   UNL     1      12.324  -5.170 -23.481  1.00  0.00     0.001 A 
ENDROOT
BRANCH   4   7
HETATM    7  C   UNL     1      14.303  -7.835 -21.586  1.00  0.00     0.298 C 
HETATM    8  O   UNL     1      15.083  -8.502 -22.255  1.00  0.00    -0.259 OA
BRANCH   7   9
HETATM    9  O   UNL     1      13.787  -8.171 -20.336  1.00  0.00    -0.275 OA
BRANCH   9  10
HETATM   10  C   UNL     1      14.647  -8.132 -19.207  1.00  0.00     0.079 A 
HETATM   11  C   UNL     1      14.272  -8.604 -17.953  1.00  0.00     0.038 A 
HETATM   12  C   UNL     1      15.129  -8.446 -16.859  1.00  0.00     0.018 A 
HETATM   13  C   UNL     1      16.396  -7.859 -17.004  1.00  0.00     0.012 A 
HETATM   14  C   UNL     1      16.805  -7.472 -18.288  1.00  0.00     0.018 A 
HETATM   15  C   UNL     1      15.929  -7.604 -19.387  1.00  0.00     0.038 A 
BRANCH  13  16
HETATM   16  C   UNL     1      17.206  -7.676 -15.752  1.00  0.00     0.183 C 
HETATM   17  O   UNL     1      17.770  -8.658 -15.263  1.00  0.00    -0.290 OA
BRANCH  16  18
HETATM   18  C   UNL     1      17.343  -6.302 -15.100  1.00  0.00     0.263 C 
BRANCH  18  19
HETATM   19  O   UNL     1      16.143  -5.952 -14.382  1.00  0.00    -0.310 OA
BRANCH  19  20
HETATM   20  C   UNL     1      15.642  -4.747 -14.750  1.00  0.00     0.293 C 
HETATM   21  O   UNL     1      15.824  -3.698 -14.147  1.00  0.00    -0.259 OA
BRANCH  20  22
HETATM   22  C   UNL     1      14.766  -4.830 -15.949  1.00  0.00     0.039 A 
HETATM   23  C   UNL     1      15.105  -4.349 -17.216  1.00  0.00     0.020 A 
HETATM   24  C   UNL     1      14.155  -4.367 -18.266  1.00  0.00     0.031 A 
HETATM   25  C   UNL     1      12.853  -4.868 -18.076  1.00  0.00     0.046 A 
HETATM   26  C   UNL     1      12.567  -5.394 -16.806  1.00  0.00     0.031 A 
HETATM   27  C   UNL     1      13.496  -5.366 -15.759  1.00  0.00     0.020 A 
BRANCH  25  28
HETATM   28  N   UNL     1      11.832  -4.822 -19.094  1.00  0.00    -0.244 N 
HETATM   29  C   UNL     1      11.387  -3.696 -19.756  1.00  0.00     0.266 A 
HETATM   30  O   UNL     1      11.746  -2.533 -19.709  1.00  0.00    -0.267 OA
HETATM   31  C   UNL     1      10.285  -4.119 -20.634  1.00  0.00     0.048 A 
HETATM   32  C   UNL     1       9.469  -3.412 -21.501  1.00  0.00     0.018 A 
HETATM   33  C   UNL     1      10.126  -5.475 -20.468  1.00  0.00     0.048 A 
HETATM   34  C   UNL     1       8.476  -4.127 -22.192  1.00  0.00     0.001 A 
HETATM   35  C   UNL     1       8.321  -5.515 -22.010  1.00  0.00     0.001 A 
HETATM   36  C   UNL     1       9.158  -6.207 -21.135  1.00  0.00     0.018 A 
HETATM   37  C   UNL     1      11.107  -5.925 -19.502  1.00  0.00     0.266 A 
HETATM   38  O   UNL     1      11.152  -7.106 -19.205  1.00  0.00    -0.267 OA
ENDBRANCH  25  28
ENDBRANCH  20  22
ENDBRANCH  19  20
ENDBRANCH  18  19
ENDBRANCH  16  18
ENDBRANCH  13  16
ENDBRANCH   9  10
ENDBRANCH   7   9
ENDBRANCH   4   7
TORSDOF 9
ENDMDL
MODEL 7
REMARK VINA RESULT:      -7.1      2.120      2.825
REMARK  9 active torsions:
REMARK  status: ('A' for Active; 'I' for Inactive)
REMARK    1  A    between atoms: C_4  and  C_7 
REMARK    2  A    between atoms: C_7  and  O_9 
REMARK    3  A    between atoms: O_9  and  C_10 
REMARK    4  A    between atoms: C_13  and  C_16 
REMARK    5  A    between atoms: C_16  and  C_18 
REMARK    6  A    between atoms: C_18  and  O_19 
REMARK    7  A    between atoms: O_19  and  C_20 
REMARK    8  A    between atoms: C_20  and  C_22 
REMARK    9  A    between atoms: C_25  and  N_28 
ROOT
HETATM    1  C   UNL     1      13.227  -5.217 -15.358  1.00  0.00     0.000 A 
HETATM    2  C   UNL     1      12.892  -6.137 -16.345  1.00  0.00     0.001 A 
HETATM    3  C   UNL     1      13.818  -6.446 -17.342  1.00  0.00     0.017 A 
HETATM    4  C   UNL     1      15.091  -5.847 -17.362  1.00  0.00     0.039 A 
HETATM    5  C   UNL     1      15.412  -4.903 -16.382  1.00  0.00     0.017 A 
HETATM    6  C   UNL     1      14.479  -4.595 -15.380  1.00  0.00     0.001 A 
ENDROOT
BRANCH   4   7
HETATM    7  C   UNL     1      16.037  -6.315 -18.417  1.00  0.00     0.298 C 
HETATM    8  O   UNL     1      16.439  -7.472 -18.415  1.00  0.00    -0.259 OA
BRANCH   7   9
HETATM    9  O   UNL     1      16.401  -5.313 -19.314  1.00  0.00    -0.275 OA
BRANCH   9  10
HETATM   10  C   UNL     1      15.536  -5.020 -20.401  1.00  0.00     0.079 A 
HETATM   11  C   UNL     1      15.381  -3.738 -20.921  1.00  0.00     0.038 A 
HETATM   12  C   UNL     1      14.439  -3.499 -21.927  1.00  0.00     0.018 A 
HETATM   13  C   UNL     1      13.669  -4.541 -22.467  1.00  0.00     0.012 A 
HETATM   14  C   UNL     1      13.897  -5.844 -22.005  1.00  0.00     0.018 A 
HETATM   15  C   UNL     1      14.827  -6.082 -20.969  1.00  0.00     0.038 A 
BRANCH  13  16
HETATM   16  C   UNL     1      12.638  -4.161 -23.493  1.00  0.00     0.183 C 
HETATM   17  O   UNL     1      12.884  -4.370 -24.684  1.00  0.00    -0.290 OA
BRANCH  16  18
HETATM   18  C   UNL     1      11.306  -3.542 -23.076  1.00  0.00     0.263 C 
BRANCH  18  19
HETATM   19  O   UNL     1      10.683  -4.320 -22.034  1.00  0.00    -0.310 OA
BRANCH  19  20
HETATM   20  C   UNL     1      10.034  -3.553 -21.123  1.00  0.00     0.293 C 
HETATM   21  O   UNL     1       8.826  -3.357 -21.105  1.00  0.00    -0.259 OA
BRANCH  20  22
HETATM   22  C   UNL     1      10.958  -2.894 -20.163  1.00  0.00     0.039 A 
HETATM   23  C   UNL     1      11.151  -1.514 -20.065  1.00  0.00     0.020 A 
HETATM   24  C   UNL     1      12.143  -0.989 -19.201  1.00  0.00     0.031 A 
HETATM   25  C   UNL     1      12.956  -1.827 -18.414  1.00  0.00     0.046 A 
HETATM   26  C   UNL     1      12.694  -3.204 -18.496  1.00  0.00     0.031 A 
HETATM   27  C   UNL     1      11.727  -3.731 -19.360  1.00  0.00     0.020 A 
BRANCH  25  28
HETATM   28  N   UNL     1      14.032  -1.337 -17.590  1.00  0.00    -0.244 N 
HETATM   29  C   UNL     1      15.302  -1.002 -18.016  1.00  0.00     0.266 A 
HETATM   30  O   UNL     1      15.803  -0.976 -19.126  1.00  0.00    -0.267 OA
HETATM   31  C   UNL     1      16.078  -0.639 -16.820  1.00  0.00     0.048 A 
HETATM   32  C   UNL     1      17.395  -0.245 -16.655  1.00  0.00     0.018 A 
HETATM   33  C   UNL     1      15.240  -0.762 -15.736  1.00  0.00     0.048 A 
HETATM   34  C   UNL     1      17.840   0.014 -15.348  1.00  0.00     0.001 A 
HETATM   35  C   UNL     1      16.973  -0.118 -14.246  1.00  0.00     0.001 A 
HETATM   36  C   UNL     1      15.649  -0.512 -14.437  1.00  0.00     0.018 A 
HETATM   37  C   UNL     1      13.944  -1.194 -16.219  1.00  0.00     0.266 A 
HETATM   38  O   UNL     1      13.037  -1.361 -15.422  1.00  0.00    -0.267 OA
ENDBRANCH  25  28
ENDBRANCH  20  22
ENDBRANCH  19  20
ENDBRANCH  18  19
ENDBRANCH  16  18
ENDBRANCH  13  16
ENDBRANCH   9  10
ENDBRANCH   7   9
ENDBRANCH   4   7
TORSDOF 9
ENDMDL
MODEL 8
REMARK VINA RESULT:      -7.1      2.440      4.902
REMARK  9 active torsions:
REMARK  status: ('A' for Active; 'I' for Inactive)
REMARK    1  A    between atoms: C_4  and  C_7 
REMARK    2  A    between atoms: C_7  and  O_9 
REMARK    3  A    between atoms: O_9  and  C_10 
REMARK    4  A    between atoms: C_13  and  C_16 
REMARK    5  A    between atoms: C_16  and  C_18 
REMARK    6  A    between atoms: C_18  and  O_19 
REMARK    7  A    between atoms: O_19  and  C_20 
REMARK    8  A    between atoms: C_20  and  C_22 
REMARK    9  A    between atoms: C_25  and  N_28 
ROOT
HETATM    1  C   UNL     1      15.343  -3.286 -14.160  1.00  0.00     0.000 A 
HETATM    2  C   UNL     1      15.881  -2.035 -14.441  1.00  0.00     0.001 A 
HETATM    3  C   UNL     1      15.779  -1.515 -15.732  1.00  0.00     0.017 A 
HETATM    4  C   UNL     1      15.133  -2.233 -16.755  1.00  0.00     0.039 A 
HETATM    5  C   UNL     1      14.617  -3.501 -16.472  1.00  0.00     0.017 A 
HETATM    6  C   UNL     1      14.720  -4.022 -15.173  1.00  0.00     0.001 A 
ENDROOT
BRANCH   4   7
HETATM    7  C   UNL     1      14.998  -1.549 -18.074  1.00  0.00     0.298 C 
HETATM    8  O   UNL     1      15.902  -0.837 -18.496  1.00  0.00    -0.259 OA
BRANCH   7   9
HETATM    9  O   UNL     1      13.773  -1.786 -18.695  1.00  0.00    -0.275 OA
BRANCH   9  10
HETATM   10  C   UNL     1      13.757  -2.466 -19.941  1.00  0.00     0.079 A 
HETATM   11  C   UNL     1      12.591  -2.687 -20.668  1.00  0.00     0.038 A 
HETATM   12  C   UNL     1      12.629  -3.450 -21.839  1.00  0.00     0.018 A 
HETATM   13  C   UNL     1      13.837  -3.967 -22.334  1.00  0.00     0.012 A 
HETATM   14  C   UNL     1      15.020  -3.662 -21.647  1.00  0.00     0.018 A 
HETATM   15  C   UNL     1      14.979  -2.916 -20.449  1.00  0.00     0.038 A 
BRANCH  13  16
HETATM   16  C   UNL     1      13.753  -4.831 -23.561  1.00  0.00     0.183 C 
HETATM   17  O   UNL     1      13.140  -4.406 -24.543  1.00  0.00    -0.290 OA
BRANCH  16  18
HETATM   18  C   UNL     1      14.424  -6.202 -23.602  1.00  0.00     0.263 C 
BRANCH  18  19
HETATM   19  O   UNL     1      13.859  -7.080 -22.607  1.00  0.00    -0.310 OA
BRANCH  19  20
HETATM   20  C   UNL     1      14.784  -7.889 -22.033  1.00  0.00     0.293 C 
HETATM   21  O   UNL     1      15.028  -9.035 -22.386  1.00  0.00    -0.259 OA
BRANCH  20  22
HETATM   22  C   UNL     1      15.444  -7.263 -20.857  1.00  0.00     0.039 A 
HETATM   23  C   UNL     1      14.771  -6.786 -19.730  1.00  0.00     0.020 A 
HETATM   24  C   UNL     1      15.478  -6.097 -18.713  1.00  0.00     0.031 A 
HETATM   25  C   UNL     1      16.866  -5.877 -18.797  1.00  0.00     0.046 A 
HETATM   26  C   UNL     1      17.516  -6.421 -19.917  1.00  0.00     0.031 A 
HETATM   27  C   UNL     1      16.822  -7.088 -20.932  1.00  0.00     0.020 A 
BRANCH  25  28
HETATM   28  N   UNL     1      17.604  -5.106 -17.828  1.00  0.00    -0.244 N 
HETATM   29  C   UNL     1      17.809  -5.436 -16.503  1.00  0.00     0.266 A 
HETATM   30  O   UNL     1      17.498  -6.420 -15.857  1.00  0.00    -0.267 OA
HETATM   31  C   UNL     1      18.536  -4.316 -15.886  1.00  0.00     0.048 A 
HETATM   32  C   UNL     1      18.982  -4.103 -14.593  1.00  0.00     0.018 A 
HETATM   33  C   UNL     1      18.743  -3.373 -16.865  1.00  0.00     0.048 A 
HETATM   34  C   UNL     1      19.640  -2.891 -14.321  1.00  0.00     0.001 A 
HETATM   35  C   UNL     1      19.842  -1.932 -15.332  1.00  0.00     0.001 A 
HETATM   36  C   UNL     1      19.388  -2.171 -16.629  1.00  0.00     0.018 A 
HETATM   37  C   UNL     1      18.163  -3.871 -18.096  1.00  0.00     0.266 A 
HETATM   38  O   UNL     1      18.237  -3.193 -19.106  1.00  0.00    -0.267 OA
ENDBRANCH  25  28
ENDBRANCH  20  22
ENDBRANCH  19  20
ENDBRANCH  18  19
ENDBRANCH  16  18
ENDBRANCH  13  16
ENDBRANCH   9  10
ENDBRANCH   7   9
ENDBRANCH   4   7
TORSDOF 9
ENDMDL
MODEL 9
REMARK VINA RESULT:      -7.1      2.084      3.450
REMARK  9 active torsions:
REMARK  status: ('A' for Active; 'I' for Inactive)
REMARK    1  A    between atoms: C_4  and  C_7 
REMARK    2  A    between atoms: C_7  and  O_9 
REMARK    3  A    between atoms: O_9  and  C_10 
REMARK    4  A    between atoms: C_13  and  C_16 
REMARK    5  A    between atoms: C_16  and  C_18 
REMARK    6  A    between atoms: C_18  and  O_19 
REMARK    7  A    between atoms: O_19  and  C_20 
REMARK    8  A    between atoms: C_20  and  C_22 
REMARK    9  A    between atoms: C_25  and  N_28 
ROOT
HETATM    1  C   UNL     1      13.151  -5.339 -14.975  1.00  0.00     0.000 A 
HETATM    2  C   UNL     1      14.330  -5.936 -14.543  1.00  0.00     0.001 A 
HETATM    3  C   UNL     1      15.010  -6.811 -15.392  1.00  0.00     0.017 A 
HETATM    4  C   UNL     1      14.525  -7.096 -16.682  1.00  0.00     0.039 A 
HETATM    5  C   UNL     1      13.325  -6.512 -17.099  1.00  0.00     0.017 A 
HETATM    6  C   UNL     1      12.644  -5.631 -16.245  1.00  0.00     0.001 A 
ENDROOT
BRANCH   4   7
HETATM    7  C   UNL     1      15.375  -7.971 -17.540  1.00  0.00     0.298 C 
HETATM    8  O   UNL     1      15.450  -9.172 -17.312  1.00  0.00    -0.259 OA
BRANCH   7   9
HETATM    9  O   UNL     1      16.049  -7.274 -18.541  1.00  0.00    -0.275 OA
BRANCH   9  10
HETATM   10  C   UNL     1      15.612  -7.409 -19.885  1.00  0.00     0.079 A 
HETATM   11  C   UNL     1      14.516  -8.185 -20.250  1.00  0.00     0.038 A 
HETATM   12  C   UNL     1      14.197  -8.356 -21.601  1.00  0.00     0.018 A 
HETATM   13  C   UNL     1      14.934  -7.718 -22.610  1.00  0.00     0.012 A 
HETATM   14  C   UNL     1      15.978  -6.863 -22.231  1.00  0.00     0.018 A 
HETATM   15  C   UNL     1      16.319  -6.713 -20.869  1.00  0.00     0.038 A 
BRANCH  13  16
HETATM   16  C   UNL     1      14.548  -8.027 -24.030  1.00  0.00     0.183 C 
HETATM   17  O   UNL     1      14.694  -9.180 -24.445  1.00  0.00    -0.290 OA
BRANCH  16  18
HETATM   18  C   UNL     1      13.974  -6.944 -24.940  1.00  0.00     0.263 C 
BRANCH  18  19
HETATM   19  O   UNL     1      12.764  -6.393 -24.382  1.00  0.00    -0.310 OA
BRANCH  19  20
HETATM   20  C   UNL     1      12.853  -5.060 -24.148  1.00  0.00     0.293 C 
HETATM   21  O   UNL     1      12.739  -4.190 -25.000  1.00  0.00    -0.259 OA
BRANCH  20  22
HETATM   22  C   UNL     1      13.182  -4.745 -22.733  1.00  0.00     0.039 A 
HETATM   23  C   UNL     1      12.485  -5.236 -21.626  1.00  0.00     0.020 A 
HETATM   24  C   UNL     1      12.801  -4.782 -20.322  1.00  0.00     0.031 A 
HETATM   25  C   UNL     1      13.821  -3.838 -20.095  1.00  0.00     0.046 A 
HETATM   26  C   UNL     1      14.537  -3.411 -21.225  1.00  0.00     0.031 A 
HETATM   27  C   UNL     1      14.220  -3.843 -22.518  1.00  0.00     0.020 A 
BRANCH  25  28
HETATM   28  N   UNL     1      14.113  -3.287 -18.795  1.00  0.00    -0.244 N 
HETATM   29  C   UNL     1      15.252  -3.510 -18.048  1.00  0.00     0.266 A 
HETATM   30  O   UNL     1      16.268  -4.136 -18.289  1.00  0.00    -0.267 OA
HETATM   31  C   UNL     1      15.069  -2.818 -16.763  1.00  0.00     0.048 A 
HETATM   32  C   UNL     1      15.875  -2.721 -15.642  1.00  0.00     0.018 A 
HETATM   33  C   UNL     1      13.839  -2.205 -16.800  1.00  0.00     0.048 A 
HETATM   34  C   UNL     1      15.387  -1.984 -14.549  1.00  0.00     0.001 A 
HETATM   35  C   UNL     1      14.123  -1.364 -14.598  1.00  0.00     0.001 A 
HETATM   36  C   UNL     1      13.330  -1.472 -15.740  1.00  0.00     0.018 A 
HETATM   37  C   UNL     1      13.234  -2.491 -18.085  1.00  0.00     0.266 A 
HETATM   38  O   UNL     1      12.132  -2.037 -18.340  1.00  0.00    -0.267 OA
ENDBRANCH  25  28
ENDBRANCH  20  22
ENDBRANCH  19  20
ENDBRANCH  18  19
ENDBRANCH  16  18
ENDBRANCH  13  16
ENDBRANCH   9  10
ENDBRANCH   7   9
ENDBRANCH   4   7
TORSDOF 9
ENDMDL
