MODEL 1
REMARK VINA RESULT:      -8.1      0.000      0.000
REMARK  3 active torsions:
REMARK  status: ('A' for Active; 'I' for Inactive)
REMARK    1  A    between atoms: O_2  and  C_3 
REMARK    2  A    between atoms: C_3  and  C_5 
REMARK    3  A    between atoms: C_10  and  N_11 
ROOT
HETATM    1  C   UNL     1      16.639  -1.113 -16.882  1.00  0.00     0.213 C 
HETATM    2  O   UNL     1      15.999  -2.392 -16.863  1.00  0.00    -0.322 OA
ENDROOT
BRANCH   2   3
HETATM    3  C   UNL     1      14.685  -2.448 -17.218  1.00  0.00     0.295 C 
HETATM    4  O   UNL     1      14.207  -1.871 -18.176  1.00  0.00    -0.259 OA
BRANCH   3   5
HETATM    5  C   UNL     1      13.990  -3.426 -16.306  1.00  0.00     0.066 A 
HETATM    6  C   UNL     1      13.763  -2.991 -14.978  1.00  0.00     0.020 A 
HETATM    7  C   UNL     1      13.346  -3.877 -13.991  1.00  0.00     0.001 A 
HETATM    8  C   UNL     1      13.150  -5.210 -14.317  1.00  0.00     0.002 A 
HETATM    9  C   UNL     1      13.319  -5.650 -15.634  1.00  0.00     0.031 A 
HETATM   10  C   UNL     1      13.700  -4.774 -16.667  1.00  0.00     0.061 A 
BRANCH  10  11
HETATM   11  N   UNL     1      13.742  -5.263 -18.010  1.00  0.00    -0.251 N 
HETATM   12  C   UNL     1      12.777  -4.923 -18.913  1.00  0.00     0.237 C 
HETATM   13  O   UNL     1      11.624  -4.580 -18.678  1.00  0.00    -0.272 OA
HETATM   14  C   UNL     1      13.256  -5.334 -20.258  1.00  0.00     0.107 C 
HETATM   15  C   UNL     1      14.295  -4.395 -20.943  1.00  0.00     0.067 C 
HETATM   16  C   UNL     1      13.942  -6.671 -19.942  1.00  0.00     0.121 C 
HETATM   17  C   UNL     1      14.278  -4.978 -22.357  1.00  0.00    -0.041 A 
HETATM   18  C   UNL     1      15.737  -4.626 -20.431  1.00  0.00    -0.041 A 
HETATM   19  C   UNL     1      13.938  -4.259 -23.496  1.00  0.00     0.008 A 
HETATM   20  C   UNL     1      14.646  -6.362 -22.400  1.00  0.00    -0.026 A 
HETATM   21  C   UNL     1      13.972  -4.910 -24.725  1.00  0.00     0.001 A 
HETATM   22  C   UNL     1      14.345  -6.259 -24.798  1.00  0.00     0.001 A 
HETATM   23  C   UNL     1      14.682  -6.986 -23.645  1.00  0.00     0.010 A 
HETATM   24  C   UNL     1      15.079  -6.910 -21.003  1.00  0.00     0.086 C 
HETATM   25  C   UNL     1      16.198  -5.979 -20.540  1.00  0.00    -0.026 A 
HETATM   26 BR   UNL     1      15.525  -8.792 -21.044  1.00  0.00    -0.074 Br
HETATM   27  C   UNL     1      17.480  -6.336 -20.134  1.00  0.00     0.010 A 
HETATM   28  C   UNL     1      18.292  -5.359 -19.569  1.00  0.00     0.001 A 
HETATM   29  C   UNL     1      17.835  -4.041 -19.435  1.00  0.00     0.001 A 
HETATM   30  C   UNL     1      16.564  -3.660 -19.880  1.00  0.00     0.008 A 
HETATM   31  C   UNL     1      14.393  -6.397 -18.479  1.00  0.00     0.238 C 
HETATM   32  O   UNL     1      15.172  -7.118 -17.868  1.00  0.00    -0.272 OA
ENDBRANCH  10  11
ENDBRANCH   3   5
ENDBRANCH   2   3
TORSDOF 3
ENDMDL
MODEL 2
REMARK VINA RESULT:      -8.0      4.067      7.262
REMARK  3 active torsions:
REMARK  status: ('A' for Active; 'I' for Inactive)
REMARK    1  A    between atoms: O_2  and  C_3 
REMARK    2  A    between atoms: C_3  and  C_5 
REMARK    3  A    between atoms: C_10  and  N_11 
ROOT
HETATM    1  C   UNL     1      18.694  -1.403 -20.881  1.00  0.00     0.213 C 
HETATM    2  O   UNL     1      18.537   0.012 -20.746  1.00  0.00    -0.322 OA
ENDROOT
BRANCH   2   3
HETATM    3  C   UNL     1      18.411   0.518 -19.487  1.00  0.00     0.295 C 
HETATM    4  O   UNL     1      19.224   0.356 -18.597  1.00  0.00    -0.259 OA
BRANCH   3   5
HETATM    5  C   UNL     1      17.182   1.389 -19.448  1.00  0.00     0.066 A 
HETATM    6  C   UNL     1      17.226   2.570 -20.228  1.00  0.00     0.020 A 
HETATM    7  C   UNL     1      16.258   3.558 -20.095  1.00  0.00     0.001 A 
HETATM    8  C   UNL     1      15.233   3.382 -19.179  1.00  0.00     0.002 A 
HETATM    9  C   UNL     1      15.142   2.201 -18.435  1.00  0.00     0.031 A 
HETATM   10  C   UNL     1      16.079   1.160 -18.574  1.00  0.00     0.061 A 
BRANCH  10  11
HETATM   11  N   UNL     1      15.864  -0.066 -17.872  1.00  0.00    -0.251 N 
HETATM   12  C   UNL     1      16.290  -0.224 -16.585  1.00  0.00     0.237 C 
HETATM   13  O   UNL     1      17.203   0.371 -16.024  1.00  0.00    -0.272 OA
HETATM   14  C   UNL     1      15.665  -1.463 -16.054  1.00  0.00     0.107 C 
HETATM   15  C   UNL     1      14.178  -1.352 -15.599  1.00  0.00     0.067 C 
HETATM   16  C   UNL     1      15.732  -2.387 -17.279  1.00  0.00     0.121 C 
HETATM   17  C   UNL     1      14.032  -2.685 -14.864  1.00  0.00    -0.041 A 
HETATM   18  C   UNL     1      13.184  -1.436 -16.782  1.00  0.00    -0.041 A 
HETATM   19  C   UNL     1      13.693  -2.805 -13.522  1.00  0.00     0.008 A 
HETATM   20  C   UNL     1      14.290  -3.820 -15.699  1.00  0.00    -0.026 A 
HETATM   21  C   UNL     1      13.585  -4.081 -12.978  1.00  0.00     0.001 A 
HETATM   22  C   UNL     1      13.815  -5.210 -13.777  1.00  0.00     0.001 A 
HETATM   23  C   UNL     1      14.164  -5.086 -15.131  1.00  0.00     0.010 A 
HETATM   24  C   UNL     1      14.551  -3.422 -17.186  1.00  0.00     0.086 C 
HETATM   25  C   UNL     1      13.329  -2.605 -17.600  1.00  0.00    -0.026 A 
HETATM   26 BR   UNL     1      14.951  -4.946 -18.309  1.00  0.00    -0.074 Br
HETATM   27  C   UNL     1      12.495  -2.825 -18.692  1.00  0.00     0.010 A 
HETATM   28  C   UNL     1      11.547  -1.858 -19.007  1.00  0.00     0.001 A 
HETATM   29  C   UNL     1      11.420  -0.701 -18.226  1.00  0.00     0.001 A 
HETATM   30  C   UNL     1      12.223  -0.489 -17.100  1.00  0.00     0.008 A 
HETATM   31  C   UNL     1      15.649  -1.327 -18.414  1.00  0.00     0.238 C 
HETATM   32  O   UNL     1      15.461  -1.612 -19.590  1.00  0.00    -0.272 OA
ENDBRANCH  10  11
ENDBRANCH   3   5
ENDBRANCH   2   3
TORSDOF 3
ENDMDL
MODEL 3
REMARK VINA RESULT:      -7.9      1.400      2.421
REMARK  3 active torsions:
REMARK  status: ('A' for Active; 'I' for Inactive)
REMARK    1  A    between atoms: O_2  and  C_3 
REMARK    2  A    between atoms: C_3  and  C_5 
REMARK    3  A    between atoms: C_10  and  N_11 
ROOT
HETATM    1  C   UNL     1      14.165  -7.466 -15.265  1.00  0.00     0.213 C 
HETATM    2  O   UNL     1      14.165  -6.189 -14.619  1.00  0.00    -0.322 OA
ENDROOT
BRANCH   2   3
HETATM    3  C   UNL     1      13.224  -5.284 -15.006  1.00  0.00     0.295 C 
HETATM    4  O   UNL     1      12.034  -5.522 -15.090  1.00  0.00    -0.259 OA
BRANCH   3   5
HETATM    5  C   UNL     1      13.898  -3.947 -15.182  1.00  0.00     0.066 A 
HETATM    6  C   UNL     1      14.040  -3.159 -14.015  1.00  0.00     0.020 A 
HETATM    7  C   UNL     1      14.429  -1.827 -14.087  1.00  0.00     0.001 A 
HETATM    8  C   UNL     1      14.682  -1.263 -15.327  1.00  0.00     0.002 A 
HETATM    9  C   UNL     1      14.598  -2.037 -16.489  1.00  0.00     0.031 A 
HETATM   10  C   UNL     1      14.248  -3.400 -16.451  1.00  0.00     0.061 A 
BRANCH  10  11
HETATM   11  N   UNL     1      14.293  -4.162 -17.659  1.00  0.00    -0.251 N 
HETATM   12  C   UNL     1      13.219  -4.213 -18.500  1.00  0.00     0.237 C 
HETATM   13  O   UNL     1      12.041  -4.039 -18.215  1.00  0.00    -0.272 OA
HETATM   14  C   UNL     1      13.677  -4.822 -19.776  1.00  0.00     0.107 C 
HETATM   15  C   UNL     1      14.458  -3.890 -20.751  1.00  0.00     0.067 C 
HETATM   16  C   UNL     1      14.636  -5.909 -19.268  1.00  0.00     0.121 C 
HETATM   17  C   UNL     1      14.461  -4.769 -22.002  1.00  0.00    -0.041 A 
HETATM   18  C   UNL     1      15.949  -3.737 -20.366  1.00  0.00    -0.041 A 
HETATM   19  C   UNL     1      13.906  -4.397 -23.221  1.00  0.00     0.008 A 
HETATM   20  C   UNL     1      15.093  -6.038 -21.799  1.00  0.00    -0.026 A 
HETATM   21  C   UNL     1      13.985  -5.290 -24.285  1.00  0.00     0.001 A 
HETATM   22  C   UNL     1      14.613  -6.532 -24.117  1.00  0.00     0.001 A 
HETATM   23  C   UNL     1      15.167  -6.909 -22.884  1.00  0.00     0.010 A 
HETATM   24  C   UNL     1      15.722  -6.171 -20.375  1.00  0.00     0.086 C 
HETATM   25  C   UNL     1      16.662  -4.975 -20.242  1.00  0.00    -0.026 A 
HETATM   26 BR   UNL     1      16.531  -7.903 -20.075  1.00  0.00    -0.074 Br
HETATM   27  C   UNL     1      18.014  -4.996 -19.916  1.00  0.00     0.010 A 
HETATM   28  C   UNL     1      18.653  -3.787 -19.659  1.00  0.00     0.001 A 
HETATM   29  C   UNL     1      17.952  -2.577 -19.751  1.00  0.00     0.001 A 
HETATM   30  C   UNL     1      16.603  -2.540 -20.122  1.00  0.00     0.008 A 
HETATM   31  C   UNL     1      15.124  -5.237 -17.953  1.00  0.00     0.238 C 
HETATM   32  O   UNL     1      16.071  -5.650 -17.295  1.00  0.00    -0.272 OA
ENDBRANCH  10  11
ENDBRANCH   3   5
ENDBRANCH   2   3
TORSDOF 3
ENDMDL
MODEL 4
REMARK VINA RESULT:      -7.8      1.911      3.123
REMARK  3 active torsions:
REMARK  status: ('A' for Active; 'I' for Inactive)
REMARK    1  A    between atoms: O_2  and  C_3 
REMARK    2  A    between atoms: C_3  and  C_5 
REMARK    3  A    between atoms: C_10  and  N_11 
ROOT
HETATM    1  C   UNL     1      15.405  -5.070 -13.709  1.00  0.00     0.213 C 
HETATM    2  O   UNL     1      15.484  -3.642 -13.753  1.00  0.00    -0.322 OA
ENDROOT
BRANCH   2   3
HETATM    3  C   UNL     1      14.532  -2.978 -14.466  1.00  0.00     0.295 C 
HETATM    4  O   UNL     1      13.357  -3.293 -14.504  1.00  0.00    -0.259 OA
BRANCH   3   5
HETATM    5  C   UNL     1      15.165  -1.751 -15.071  1.00  0.00     0.066 A 
HETATM    6  C   UNL     1      15.512  -0.716 -14.170  1.00  0.00     0.020 A 
HETATM    7  C   UNL     1      15.884   0.543 -14.627  1.00  0.00     0.001 A 
HETATM    8  C   UNL     1      15.913   0.786 -15.992  1.00  0.00     0.002 A 
HETATM    9  C   UNL     1      15.622  -0.238 -16.901  1.00  0.00     0.031 A 
HETATM   10  C   UNL     1      15.283  -1.536 -16.475  1.00  0.00     0.061 A 
BRANCH  10  11
HETATM   11  N   UNL     1      15.113  -2.563 -17.454  1.00  0.00    -0.251 N 
HETATM   12  C   UNL     1      13.964  -2.655 -18.184  1.00  0.00     0.237 C 
HETATM   13  O   UNL     1      12.851  -2.246 -17.878  1.00  0.00    -0.272 OA
HETATM   14  C   UNL     1      14.212  -3.613 -19.293  1.00  0.00     0.107 C 
HETATM   15  C   UNL     1      15.006  -3.068 -20.519  1.00  0.00     0.067 C 
HETATM   16  C   UNL     1      15.070  -4.676 -18.591  1.00  0.00     0.121 C 
HETATM   17  C   UNL     1      14.774  -4.212 -21.507  1.00  0.00    -0.041 A 
HETATM   18  C   UNL     1      16.535  -3.049 -20.280  1.00  0.00    -0.041 A 
HETATM   19  C   UNL     1      14.154  -4.065 -22.742  1.00  0.00     0.008 A 
HETATM   20  C   UNL     1      15.256  -5.475 -21.032  1.00  0.00    -0.026 A 
HETATM   21  C   UNL     1      14.013  -5.189 -23.550  1.00  0.00     0.001 A 
HETATM   22  C   UNL     1      14.492  -6.433 -23.117  1.00  0.00     0.001 A 
HETATM   23  C   UNL     1      15.112  -6.581 -21.866  1.00  0.00     0.010 A 
HETATM   24  C   UNL     1      16.000  -5.354 -19.664  1.00  0.00     0.086 C 
HETATM   25  C   UNL     1      17.093  -4.313 -19.896  1.00  0.00    -0.026 A 
HETATM   26 BR   UNL     1      16.607  -7.063 -18.991  1.00  0.00    -0.074 Br
HETATM   27  C   UNL     1      18.457  -4.454 -19.661  1.00  0.00     0.010 A 
HETATM   28  C   UNL     1      19.266  -3.327 -19.757  1.00  0.00     0.001 A 
HETATM   29  C   UNL     1      18.720  -2.084 -20.106  1.00  0.00     0.001 A 
HETATM   30  C   UNL     1      17.357  -1.939 -20.387  1.00  0.00     0.008 A 
HETATM   31  C   UNL     1      15.766  -3.788 -17.520  1.00  0.00     0.238 C 
HETATM   32  O   UNL     1      16.713  -4.167 -16.842  1.00  0.00    -0.272 OA
ENDBRANCH  10  11
ENDBRANCH   3   5
ENDBRANCH   2   3
TORSDOF 3
ENDMDL
MODEL 5
REMARK VINA RESULT:      -7.8      2.688      5.935
REMARK  3 active torsions:
REMARK  status: ('A' for Active; 'I' for Inactive)
REMARK    1  A    between atoms: O_2  and  C_3 
REMARK    2  A    between atoms: C_3  and  C_5 
REMARK    3  A    between atoms: C_10  and  N_11 
ROOT
HETATM    1  C   UNL     1      14.187  -6.607 -14.880  1.00  0.00     0.213 C 
HETATM    2  O   UNL     1      14.516  -7.592 -15.865  1.00  0.00    -0.322 OA
ENDROOT
BRANCH   2   3
HETATM    3  C   UNL     1      15.789  -7.600 -16.351  1.00  0.00     0.295 C 
HETATM    4  O   UNL     1      16.788  -7.507 -15.663  1.00  0.00    -0.259 OA
BRANCH   3   5
HETATM    5  C   UNL     1      15.728  -7.863 -17.834  1.00  0.00     0.066 A 
HETATM    6  C   UNL     1      15.620  -9.219 -18.225  1.00  0.00     0.020 A 
HETATM    7  C   UNL     1      15.788  -9.603 -19.550  1.00  0.00     0.001 A 
HETATM    8  C   UNL     1      16.066  -8.637 -20.504  1.00  0.00     0.002 A 
HETATM    9  C   UNL     1      16.126  -7.285 -20.148  1.00  0.00     0.031 A 
HETATM   10  C   UNL     1      15.920  -6.856 -18.823  1.00  0.00     0.061 A 
BRANCH  10  11
HETATM   11  N   UNL     1      15.879  -5.454 -18.547  1.00  0.00    -0.251 N 
HETATM   12  C   UNL     1      17.017  -4.762 -18.249  1.00  0.00     0.237 C 
HETATM   13  O   UNL     1      18.055  -5.204 -17.772  1.00  0.00    -0.272 OA
HETATM   14  C   UNL     1      16.691  -3.313 -18.311  1.00  0.00     0.107 C 
HETATM   15  C   UNL     1      16.618  -2.677 -19.732  1.00  0.00     0.067 C 
HETATM   16  C   UNL     1      15.285  -3.291 -17.694  1.00  0.00     0.121 C 
HETATM   17  C   UNL     1      16.580  -1.196 -19.351  1.00  0.00    -0.041 A 
HETATM   18  C   UNL     1      15.267  -2.944 -20.437  1.00  0.00    -0.041 A 
HETATM   19  C   UNL     1      17.523  -0.259 -19.755  1.00  0.00     0.008 A 
HETATM   20  C   UNL     1      15.465  -0.857 -18.516  1.00  0.00    -0.026 A 
HETATM   21  C   UNL     1      17.365   1.060 -19.343  1.00  0.00     0.001 A 
HETATM   22  C   UNL     1      16.274   1.422 -18.540  1.00  0.00     0.001 A 
HETATM   23  C   UNL     1      15.325   0.473 -18.127  1.00  0.00     0.010 A 
HETATM   24  C   UNL     1      14.500  -2.065 -18.289  1.00  0.00     0.086 C 
HETATM   25  C   UNL     1      14.113  -2.534 -19.690  1.00  0.00    -0.026 A 
HETATM   26 BR   UNL     1      13.021  -1.628 -17.120  1.00  0.00    -0.074 Br
HETATM   27  C   UNL     1      12.830  -2.697 -20.202  1.00  0.00     0.010 A 
HETATM   28  C   UNL     1      12.684  -3.315 -21.439  1.00  0.00     0.001 A 
HETATM   29  C   UNL     1      13.808  -3.742 -22.161  1.00  0.00     0.001 A 
HETATM   30  C   UNL     1      15.105  -3.545 -21.676  1.00  0.00     0.008 A 
HETATM   31  C   UNL     1      14.792  -4.707 -18.110  1.00  0.00     0.238 C 
HETATM   32  O   UNL     1      13.627  -5.071 -18.011  1.00  0.00    -0.272 OA
ENDBRANCH  10  11
ENDBRANCH   3   5
ENDBRANCH   2   3
TORSDOF 3
ENDMDL
MODEL 6
REMARK VINA RESULT:      -7.7      3.487      6.181
REMARK  3 active torsions:
REMARK  status: ('A' for Active; 'I' for Inactive)
REMARK    1  A    between atoms: O_2  and  C_3 
REMARK    2  A    between atoms: C_3  and  C_5 
REMARK    3  A    between atoms: C_10  and  N_11 
ROOT
HETATM    1  C   UNL     1      13.993  -9.499 -19.659  1.00  0.00     0.213 C 
HETATM    2  O   UNL     1      15.087  -9.857 -18.810  1.00  0.00    -0.322 OA
ENDROOT
BRANCH   2   3
HETATM    3  C   UNL     1      16.305  -9.315 -19.086  1.00  0.00     0.295 C 
HETATM    4  O   UNL     1      16.638  -8.889 -20.176  1.00  0.00    -0.259 OA
BRANCH   3   5
HETATM    5  C   UNL     1      17.087  -9.230 -17.800  1.00  0.00     0.066 A 
HETATM    6  C   UNL     1      17.879 -10.356 -17.473  1.00  0.00     0.020 A 
HETATM    7  C   UNL     1      18.456 -10.492 -16.215  1.00  0.00     0.001 A 
HETATM    8  C   UNL     1      18.248  -9.503 -15.266  1.00  0.00     0.002 A 
HETATM    9  C   UNL     1      17.511  -8.358 -15.584  1.00  0.00     0.031 A 
HETATM   10  C   UNL     1      16.948  -8.167 -16.860  1.00  0.00     0.061 A 
BRANCH  10  11
HETATM   11  N   UNL     1      16.307  -6.924 -17.156  1.00  0.00    -0.251 N 
HETATM   12  C   UNL     1      15.003  -6.707 -16.817  1.00  0.00     0.237 C 
HETATM   13  O   UNL     1      14.127  -7.546 -16.649  1.00  0.00    -0.272 OA
HETATM   14  C   UNL     1      14.732  -5.255 -16.983  1.00  0.00     0.107 C 
HETATM   15  C   UNL     1      15.236  -4.318 -15.843  1.00  0.00     0.067 C 
HETATM   16  C   UNL     1      15.528  -4.941 -18.259  1.00  0.00     0.121 C 
HETATM   17  C   UNL     1      14.512  -3.028 -16.229  1.00  0.00    -0.041 A 
HETATM   18  C   UNL     1      16.743  -3.984 -15.966  1.00  0.00    -0.041 A 
HETATM   19  C   UNL     1      13.608  -2.362 -15.410  1.00  0.00     0.008 A 
HETATM   20  C   UNL     1      14.851  -2.562 -17.541  1.00  0.00    -0.026 A 
HETATM   21  C   UNL     1      13.025  -1.191 -15.881  1.00  0.00     0.001 A 
HETATM   22  C   UNL     1      13.352  -0.703 -17.154  1.00  0.00     0.001 A 
HETATM   23  C   UNL     1      14.260  -1.380 -17.983  1.00  0.00     0.010 A 
HETATM   24  C   UNL     1      15.961  -3.429 -18.215  1.00  0.00     0.086 C 
HETATM   25  C   UNL     1      17.127  -3.421 -17.228  1.00  0.00    -0.026 A 
HETATM   26 BR   UNL     1      16.386  -2.837 -20.008  1.00  0.00    -0.074 Br
HETATM   27  C   UNL     1      18.445  -3.056 -17.480  1.00  0.00     0.010 A 
HETATM   28  C   UNL     1      19.399  -3.298 -16.498  1.00  0.00     0.001 A 
HETATM   29  C   UNL     1      19.033  -3.874 -15.273  1.00  0.00     0.001 A 
HETATM   30  C   UNL     1      17.703  -4.204 -14.991  1.00  0.00     0.008 A 
HETATM   31  C   UNL     1      16.660  -5.999 -18.131  1.00  0.00     0.238 C 
HETATM   32  O   UNL     1      17.667  -5.997 -18.829  1.00  0.00    -0.272 OA
ENDBRANCH  10  11
ENDBRANCH   3   5
ENDBRANCH   2   3
TORSDOF 3
ENDMDL
MODEL 7
REMARK VINA RESULT:      -7.7      3.150      6.120
REMARK  3 active torsions:
REMARK  status: ('A' for Active; 'I' for Inactive)
REMARK    1  A    between atoms: O_2  and  C_3 
REMARK    2  A    between atoms: C_3  and  C_5 
REMARK    3  A    between atoms: C_10  and  N_11 
ROOT
HETATM    1  C   UNL     1      15.600  -5.780 -18.855  1.00  0.00     0.213 C 
HETATM    2  O   UNL     1      14.887  -5.927 -17.624  1.00  0.00    -0.322 OA
ENDROOT
BRANCH   2   3
HETATM    3  C   UNL     1      13.724  -5.233 -17.479  1.00  0.00     0.295 C 
HETATM    4  O   UNL     1      12.840  -5.192 -18.314  1.00  0.00    -0.259 OA
BRANCH   3   5
HETATM    5  C   UNL     1      13.690  -4.652 -16.089  1.00  0.00     0.066 A 
HETATM    6  C   UNL     1      13.265  -5.523 -15.057  1.00  0.00     0.020 A 
HETATM    7  C   UNL     1      12.972  -5.044 -13.785  1.00  0.00     0.001 A 
HETATM    8  C   UNL     1      13.099  -3.688 -13.526  1.00  0.00     0.002 A 
HETATM    9  C   UNL     1      13.565  -2.818 -14.518  1.00  0.00     0.031 A 
HETATM   10  C   UNL     1      13.912  -3.273 -15.804  1.00  0.00     0.061 A 
BRANCH  10  11
HETATM   11  N   UNL     1      14.491  -2.354 -16.732  1.00  0.00    -0.251 N 
HETATM   12  C   UNL     1      13.711  -1.633 -17.589  1.00  0.00     0.237 C 
HETATM   13  O   UNL     1      12.594  -1.920 -17.999  1.00  0.00    -0.272 OA
HETATM   14  C   UNL     1      14.565  -0.578 -18.194  1.00  0.00     0.107 C 
HETATM   15  C   UNL     1      14.847   0.679 -17.316  1.00  0.00     0.067 C 
HETATM   16  C   UNL     1      15.886  -1.336 -18.398  1.00  0.00     0.121 C 
HETATM   17  C   UNL     1      15.457   1.601 -18.372  1.00  0.00    -0.041 A 
HETATM   18  C   UNL     1      15.978   0.446 -16.285  1.00  0.00    -0.041 A 
HETATM   19  C   UNL     1      14.936   2.840 -18.724  1.00  0.00     0.008 A 
HETATM   20  C   UNL     1      16.634   1.058 -18.983  1.00  0.00    -0.026 A 
HETATM   21  C   UNL     1      15.595   3.585 -19.697  1.00  0.00     0.001 A 
HETATM   22  C   UNL     1      16.759   3.084 -20.299  1.00  0.00     0.001 A 
HETATM   23  C   UNL     1      17.280   1.829 -19.947  1.00  0.00     0.010 A 
HETATM   24  C   UNL     1      17.068  -0.299 -18.343  1.00  0.00     0.086 C 
HETATM   25  C   UNL     1      17.216  -0.006 -16.851  1.00  0.00    -0.026 A 
HETATM   26 BR   UNL     1      18.625  -1.064 -19.199  1.00  0.00    -0.074 Br
HETATM   27  C   UNL     1      18.328  -0.243 -16.050  1.00  0.00     0.010 A 
HETATM   28  C   UNL     1      18.200  -0.082 -14.675  1.00  0.00     0.001 A 
HETATM   29  C   UNL     1      16.984   0.333 -14.115  1.00  0.00     0.001 A 
HETATM   30  C   UNL     1      15.871   0.617 -14.914  1.00  0.00     0.008 A 
HETATM   31  C   UNL     1      15.790  -2.353 -17.225  1.00  0.00     0.238 C 
HETATM   32  O   UNL     1      16.730  -3.048 -16.857  1.00  0.00    -0.272 OA
ENDBRANCH  10  11
ENDBRANCH   3   5
ENDBRANCH   2   3
TORSDOF 3
ENDMDL
MODEL 8
REMARK VINA RESULT:      -7.7      3.108      6.042
REMARK  3 active torsions:
REMARK  status: ('A' for Active; 'I' for Inactive)
REMARK    1  A    between atoms: O_2  and  C_3 
REMARK    2  A    between atoms: C_3  and  C_5 
REMARK    3  A    between atoms: C_10  and  N_11 
ROOT
HETATM    1  C   UNL     1      14.723  -4.608 -13.274  1.00  0.00     0.213 C 
HETATM    2  O   UNL     1      14.992  -5.651 -14.215  1.00  0.00    -0.322 OA
ENDROOT
BRANCH   2   3
HETATM    3  C   UNL     1      16.287  -5.848 -14.588  1.00  0.00     0.295 C 
HETATM    4  O   UNL     1      17.247  -5.674 -13.861  1.00  0.00    -0.259 OA
BRANCH   3   5
HETATM    5  C   UNL     1      16.296  -6.424 -15.981  1.00  0.00     0.066 A 
HETATM    6  C   UNL     1      16.398  -7.833 -16.076  1.00  0.00     0.020 A 
HETATM    7  C   UNL     1      16.647  -8.458 -17.292  1.00  0.00     0.001 A 
HETATM    8  C   UNL     1      16.798  -7.683 -18.432  1.00  0.00     0.002 A 
HETATM    9  C   UNL     1      16.651  -6.293 -18.369  1.00  0.00     0.031 A 
HETATM   10  C   UNL     1      16.357  -5.630 -17.163  1.00  0.00     0.061 A 
BRANCH  10  11
HETATM   11  N   UNL     1      16.103  -4.224 -17.189  1.00  0.00    -0.251 N 
HETATM   12  C   UNL     1      17.098  -3.325 -16.933  1.00  0.00     0.237 C 
HETATM   13  O   UNL     1      18.116  -3.507 -16.277  1.00  0.00    -0.272 OA
HETATM   14  C   UNL     1      16.599  -1.981 -17.324  1.00  0.00     0.107 C 
HETATM   15  C   UNL     1      16.623  -1.647 -18.847  1.00  0.00     0.067 C 
HETATM   16  C   UNL     1      15.136  -2.053 -16.864  1.00  0.00     0.121 C 
HETATM   17  C   UNL     1      16.348  -0.143 -18.786  1.00  0.00    -0.041 A 
HETATM   18  C   UNL     1      15.415  -2.244 -19.608  1.00  0.00    -0.041 A 
HETATM   19  C   UNL     1      17.207   0.830 -19.283  1.00  0.00     0.008 A 
HETATM   20  C   UNL     1      15.104   0.178 -18.151  1.00  0.00    -0.026 A 
HETATM   21  C   UNL     1      16.831   2.165 -19.171  1.00  0.00     0.001 A 
HETATM   22  C   UNL     1      15.612   2.506 -18.569  1.00  0.00     0.001 A 
HETATM   23  C   UNL     1      14.749   1.521 -18.062  1.00  0.00     0.010 A 
HETATM   24  C   UNL     1      14.281  -1.094 -17.772  1.00  0.00     0.086 C 
HETATM   25  C   UNL     1      14.134  -1.876 -19.076  1.00  0.00    -0.026 A 
HETATM   26 BR   UNL     1      12.625  -0.669 -16.867  1.00  0.00    -0.074 Br
HETATM   27  C   UNL     1      12.957  -2.325 -19.665  1.00  0.00     0.010 A 
HETATM   28  C   UNL     1      13.045  -3.184 -20.754  1.00  0.00     0.001 A 
HETATM   29  C   UNL     1      14.295  -3.567 -21.261  1.00  0.00     0.001 A 
HETATM   30  C   UNL     1      15.486  -3.088 -20.705  1.00  0.00     0.008 A 
HETATM   31  C   UNL     1      14.884  -3.579 -17.022  1.00  0.00     0.238 C 
HETATM   32  O   UNL     1      13.771  -4.088 -16.963  1.00  0.00    -0.272 OA
ENDBRANCH  10  11
ENDBRANCH   3   5
ENDBRANCH   2   3
TORSDOF 3
ENDMDL
MODEL 9
REMARK VINA RESULT:      -7.6      3.681      5.172
REMARK  3 active torsions:
REMARK  status: ('A' for Active; 'I' for Inactive)
REMARK    1  A    between atoms: O_2  and  C_3 
REMARK    2  A    between atoms: C_3  and  C_5 
REMARK    3  A    between atoms: C_10  and  N_11 
ROOT
HETATM    1  C   UNL     1       8.480  -5.950 -22.050  1.00  0.00     0.213 C 
HETATM    2  O   UNL     1       9.157  -4.993 -21.229  1.00  0.00    -0.322 OA
ENDROOT
BRANCH   2   3
HETATM    3  C   UNL     1       9.777  -3.952 -21.852  1.00  0.00     0.295 C 
HETATM    4  O   UNL     1       9.326  -3.358 -22.813  1.00  0.00    -0.259 OA
BRANCH   3   5
HETATM    5  C   UNL     1      11.021  -3.609 -21.073  1.00  0.00     0.066 A 
HETATM    6  C   UNL     1      10.876  -2.633 -20.058  1.00  0.00     0.020 A 
HETATM    7  C   UNL     1      11.984  -2.070 -19.435  1.00  0.00     0.001 A 
HETATM    8  C   UNL     1      13.253  -2.473 -19.819  1.00  0.00     0.002 A 
HETATM    9  C   UNL     1      13.419  -3.473 -20.784  1.00  0.00     0.031 A 
HETATM   10  C   UNL     1      12.319  -4.095 -21.405  1.00  0.00     0.061 A 
BRANCH  10  11
HETATM   11  N   UNL     1      12.554  -5.188 -22.296  1.00  0.00    -0.251 N 
HETATM   12  C   UNL     1      12.728  -4.982 -23.634  1.00  0.00     0.237 C 
HETATM   13  O   UNL     1      12.318  -4.040 -24.301  1.00  0.00    -0.272 OA
HETATM   14  C   UNL     1      13.238  -6.248 -24.221  1.00  0.00     0.107 C 
HETATM   15  C   UNL     1      14.755  -6.545 -24.021  1.00  0.00     0.067 C 
HETATM   16  C   UNL     1      12.429  -7.294 -23.440  1.00  0.00     0.121 C 
HETATM   17  C   UNL     1      14.921  -7.711 -24.997  1.00  0.00    -0.041 A 
HETATM   18  C   UNL     1      15.068  -7.143 -22.628  1.00  0.00    -0.041 A 
HETATM   19  C   UNL     1      15.791  -7.706 -26.081  1.00  0.00     0.008 A 
HETATM   20  C   UNL     1      14.076  -8.827 -24.693  1.00  0.00    -0.026 A 
HETATM   21  C   UNL     1      15.851  -8.838 -26.888  1.00  0.00     0.001 A 
HETATM   22  C   UNL     1      15.047  -9.951 -26.602  1.00  0.00     0.001 A 
HETATM   23  C   UNL     1      14.164  -9.951 -25.511  1.00  0.00     0.010 A 
HETATM   24  C   UNL     1      13.268  -8.622 -23.371  1.00  0.00     0.086 C 
HETATM   25  C   UNL     1      14.320  -8.324 -22.304  1.00  0.00    -0.026 A 
HETATM   26 BR   UNL     1      12.086 -10.103 -22.981  1.00  0.00    -0.074 Br
HETATM   27  C   UNL     1      14.505  -8.981 -21.092  1.00  0.00     0.010 A 
HETATM   28  C   UNL     1      15.396  -8.438 -20.173  1.00  0.00     0.001 A 
HETATM   29  C   UNL     1      16.108  -7.269 -20.474  1.00  0.00     0.001 A 
HETATM   30  C   UNL     1      15.964  -6.623 -21.707  1.00  0.00     0.008 A 
HETATM   31  C   UNL     1      12.222  -6.524 -22.104  1.00  0.00     0.238 C 
HETATM   32  O   UNL     1      11.796  -7.049 -21.083  1.00  0.00    -0.272 OA
ENDBRANCH  10  11
ENDBRANCH   3   5
ENDBRANCH   2   3
TORSDOF 3
ENDMDL
