MODEL 1
REMARK VINA RESULT:      -6.7      0.000      0.000
REMARK  6 active torsions:
REMARK  status: ('A' for Active; 'I' for Inactive)
REMARK    1  A    between atoms: C_2  and  C_3 
REMARK    2  A    between atoms: C_2  and  N_16 
REMARK       I    between atoms: C_3  and  N_5 
REMARK    3  A    between atoms: N_5  and  C_6 
REMARK    4  A    between atoms: C_8  and  O_14 
REMARK    5  A    between atoms: C_11  and  O_12 
REMARK    6  A    between atoms: C_21  and  C_22 
ROOT
HETATM    1  C   UNL     1      13.449  -9.310 -28.461  1.00  0.00     0.044 C 
HETATM    2  C   UNL     1      14.951  -9.107 -28.259  1.00  0.00     0.199 C 
ENDROOT
BRANCH   2   3
HETATM    3  C   UNL     1      15.745 -10.295 -28.855  1.00  0.00     0.246 C 
HETATM    4  O   UNL     1      16.975 -10.344 -28.805  1.00  0.00    -0.271 OA
HETATM    5  N   UNL     1      14.959 -11.277 -29.453  1.00  0.00    -0.323 N 
HETATM    6  HN  UNL     1      13.963 -11.281 -29.239  1.00  0.00     0.169 HD
BRANCH   5   7
HETATM    7  C   UNL     1      15.492 -12.431 -30.081  1.00  0.00     0.071 A 
HETATM    8  C   UNL     1      15.638 -13.622 -29.339  1.00  0.00     0.069 A 
HETATM    9  C   UNL     1      16.242 -14.752 -29.900  1.00  0.00     0.070 A 
HETATM   10  C   UNL     1      16.659 -14.710 -31.228  1.00  0.00     0.039 A 
HETATM   11  C   UNL     1      16.523 -13.540 -31.974  1.00  0.00     0.042 A 
HETATM   12  C   UNL     1      15.957 -12.394 -31.407  1.00  0.00     0.095 A 
BRANCH   9  13
HETATM   13  O   UNL     1      16.505 -15.936 -29.268  1.00  0.00    -0.356 OA
HETATM   14  C   UNL     1      15.845 -17.097 -29.755  1.00  0.00     0.210 C 
ENDBRANCH   9  13
BRANCH  12  15
HETATM   15  O   UNL     1      15.951 -11.319 -32.253  1.00  0.00    -0.354 OA
HETATM   16  C   UNL     1      15.709 -11.592 -33.625  1.00  0.00     0.210 C 
ENDBRANCH  12  15
ENDBRANCH   5   7
ENDBRANCH   2   3
BRANCH   2  17
HETATM   17  N   UNL     1      15.435  -7.823 -28.796  1.00  0.00    -0.244 N 
HETATM   18  C   UNL     1      15.530  -6.735 -27.947  1.00  0.00     0.262 A 
HETATM   19  O   UNL     1      15.263  -6.778 -26.747  1.00  0.00    -0.267 OA
HETATM   20  C   UNL     1      16.071  -5.490 -28.520  1.00  0.00     0.078 A 
HETATM   21  C   UNL     1      16.420  -5.424 -29.804  1.00  0.00     0.037 A 
HETATM   22  C   UNL     1      16.202  -6.636 -30.624  1.00  0.00     0.058 A 
HETATM   23  N   UNL     1      15.748  -7.756 -30.147  1.00  0.00    -0.294 N 
HETATM   24  HN  UNL     1      15.625  -8.568 -30.752  1.00  0.00     0.187 HD
BRANCH  22  25
HETATM   25  C   UNL     1      16.457  -6.503 -32.094  1.00  0.00    -0.008 A 
HETATM   26  C   UNL     1      16.650  -5.251 -32.704  1.00  0.00     0.014 A 
HETATM   27  C   UNL     1      16.780  -5.168 -34.089  1.00  0.00     0.001 A 
HETATM   28  C   UNL     1      16.726  -6.319 -34.877  1.00  0.00     0.000 A 
HETATM   29  C   UNL     1      16.574  -7.567 -34.267  1.00  0.00     0.001 A 
HETATM   30  C   UNL     1      16.447  -7.654 -32.882  1.00  0.00     0.014 A 
ENDBRANCH  22  25
ENDBRANCH   2  17
TORSDOF 6
ENDMDL
MODEL 2
REMARK VINA RESULT:      -6.6     12.000     13.961
REMARK  6 active torsions:
REMARK  status: ('A' for Active; 'I' for Inactive)
REMARK    1  A    between atoms: C_2  and  C_3 
REMARK    2  A    between atoms: C_2  and  N_16 
REMARK       I    between atoms: C_3  and  N_5 
REMARK    3  A    between atoms: N_5  and  C_6 
REMARK    4  A    between atoms: C_8  and  O_14 
REMARK    5  A    between atoms: C_11  and  O_12 
REMARK    6  A    between atoms: C_21  and  C_22 
ROOT
HETATM    1  C   UNL     1      13.249  -5.282 -14.455  1.00  0.00     0.044 C 
HETATM    2  C   UNL     1      14.309  -4.521 -15.251  1.00  0.00     0.199 C 
ENDROOT
BRANCH   2   3
HETATM    3  C   UNL     1      15.043  -5.472 -16.228  1.00  0.00     0.246 C 
HETATM    4  O   UNL     1      15.880  -5.058 -17.031  1.00  0.00    -0.271 OA
HETATM    5  N   UNL     1      14.668  -6.809 -16.127  1.00  0.00    -0.323 N 
HETATM    6  HN  UNL     1      14.163  -7.098 -15.292  1.00  0.00     0.169 HD
BRANCH   5   7
HETATM    7  C   UNL     1      15.200  -7.835 -16.949  1.00  0.00     0.071 A 
HETATM    8  C   UNL     1      16.373  -8.509 -16.549  1.00  0.00     0.069 A 
HETATM    9  C   UNL     1      16.974  -9.463 -17.377  1.00  0.00     0.070 A 
HETATM   10  C   UNL     1      16.373  -9.784 -18.591  1.00  0.00     0.039 A 
HETATM   11  C   UNL     1      15.215  -9.126 -19.001  1.00  0.00     0.042 A 
HETATM   12  C   UNL     1      14.631  -8.142 -18.197  1.00  0.00     0.095 A 
BRANCH   9  13
HETATM   13  O   UNL     1      18.143 -10.131 -17.137  1.00  0.00    -0.356 OA
HETATM   14  C   UNL     1      18.544 -10.280 -15.782  1.00  0.00     0.210 C 
ENDBRANCH   9  13
BRANCH  12  15
HETATM   15  O   UNL     1      13.535  -7.555 -18.771  1.00  0.00    -0.354 OA
HETATM   16  C   UNL     1      13.785  -6.639 -19.826  1.00  0.00     0.210 C 
ENDBRANCH  12  15
ENDBRANCH   5   7
ENDBRANCH   2   3
BRANCH   2  17
HETATM   17  N   UNL     1      13.765  -3.349 -15.961  1.00  0.00    -0.244 N 
HETATM   18  C   UNL     1      13.635  -2.154 -15.279  1.00  0.00     0.262 A 
HETATM   19  O   UNL     1      13.980  -1.992 -14.109  1.00  0.00    -0.267 OA
HETATM   20  C   UNL     1      13.137  -1.000 -16.048  1.00  0.00     0.078 A 
HETATM   21  C   UNL     1      12.804  -1.127 -17.332  1.00  0.00     0.037 A 
HETATM   22  C   UNL     1      12.920  -2.477 -17.927  1.00  0.00     0.058 A 
HETATM   23  N   UNL     1      13.375  -3.510 -17.284  1.00  0.00    -0.294 N 
HETATM   24  HN  UNL     1      13.446  -4.419 -17.742  1.00  0.00     0.187 HD
BRANCH  22  25
HETATM   25  C   UNL     1      12.401  -2.638 -19.322  1.00  0.00    -0.008 A 
HETATM   26  C   UNL     1      11.034  -2.516 -19.627  1.00  0.00     0.014 A 
HETATM   27  C   UNL     1      10.586  -2.777 -20.919  1.00  0.00     0.001 A 
HETATM   28  C   UNL     1      11.484  -3.153 -21.919  1.00  0.00     0.000 A 
HETATM   29  C   UNL     1      12.848  -3.237 -21.627  1.00  0.00     0.001 A 
HETATM   30  C   UNL     1      13.300  -2.973 -20.335  1.00  0.00     0.014 A 
ENDBRANCH  22  25
ENDBRANCH   2  17
TORSDOF 6
ENDMDL
MODEL 3
REMARK VINA RESULT:      -6.6      0.923      2.392
REMARK  6 active torsions:
REMARK  status: ('A' for Active; 'I' for Inactive)
REMARK    1  A    between atoms: C_2  and  C_3 
REMARK    2  A    between atoms: C_2  and  N_16 
REMARK       I    between atoms: C_3  and  N_5 
REMARK    3  A    between atoms: N_5  and  C_6 
REMARK    4  A    between atoms: C_8  and  O_14 
REMARK    5  A    between atoms: C_11  and  O_12 
REMARK    6  A    between atoms: C_21  and  C_22 
ROOT
HETATM    1  C   UNL     1      13.460  -9.112 -28.315  1.00  0.00     0.044 C 
HETATM    2  C   UNL     1      14.964  -8.912 -28.129  1.00  0.00     0.199 C 
ENDROOT
BRANCH   2   3
HETATM    3  C   UNL     1      15.747 -10.122 -28.694  1.00  0.00     0.246 C 
HETATM    4  O   UNL     1      16.978 -10.171 -28.663  1.00  0.00    -0.271 OA
HETATM    5  N   UNL     1      14.950 -11.126 -29.239  1.00  0.00    -0.323 N 
HETATM    6  HN  UNL     1      13.959 -11.121 -29.008  1.00  0.00     0.169 HD
BRANCH   5   7
HETATM    7  C   UNL     1      15.472 -12.303 -29.832  1.00  0.00     0.071 A 
HETATM    8  C   UNL     1      15.878 -12.281 -31.184  1.00  0.00     0.069 A 
HETATM    9  C   UNL     1      16.313 -13.446 -31.824  1.00  0.00     0.070 A 
HETATM   10  C   UNL     1      16.392 -14.631 -31.099  1.00  0.00     0.039 A 
HETATM   11  C   UNL     1      15.993 -14.670 -29.765  1.00  0.00     0.042 A 
HETATM   12  C   UNL     1      15.519 -13.519 -29.128  1.00  0.00     0.095 A 
BRANCH   9  13
HETATM   13  O   UNL     1      16.664 -13.570 -33.140  1.00  0.00    -0.356 OA
HETATM   14  C   UNL     1      16.068 -12.669 -34.064  1.00  0.00     0.210 C 
ENDBRANCH   9  13
BRANCH  12  15
HETATM   15  O   UNL     1      15.116 -13.741 -27.839  1.00  0.00    -0.354 OA
HETATM   16  C   UNL     1      14.877 -15.091 -27.472  1.00  0.00     0.210 C 
ENDBRANCH  12  15
ENDBRANCH   5   7
ENDBRANCH   2   3
BRANCH   2  17
HETATM   17  N   UNL     1      15.453  -7.648 -28.709  1.00  0.00    -0.244 N 
HETATM   18  C   UNL     1      15.553  -6.534 -27.896  1.00  0.00     0.262 A 
HETATM   19  O   UNL     1      15.289  -6.536 -26.695  1.00  0.00    -0.267 OA
HETATM   20  C   UNL     1      16.098  -5.310 -28.511  1.00  0.00     0.078 A 
HETATM   21  C   UNL     1      16.444  -5.287 -29.798  1.00  0.00     0.037 A 
HETATM   22  C   UNL     1      16.219  -6.525 -30.577  1.00  0.00     0.058 A 
HETATM   23  N   UNL     1      15.762  -7.627 -30.062  1.00  0.00    -0.294 N 
HETATM   24  HN  UNL     1      15.634  -8.458 -30.640  1.00  0.00     0.187 HD
BRANCH  22  25
HETATM   25  C   UNL     1      16.471  -6.440 -32.051  1.00  0.00    -0.008 A 
HETATM   26  C   UNL     1      16.667  -5.210 -32.702  1.00  0.00     0.014 A 
HETATM   27  C   UNL     1      16.793  -5.173 -34.089  1.00  0.00     0.001 A 
HETATM   28  C   UNL     1      16.733  -6.348 -34.839  1.00  0.00     0.000 A 
HETATM   29  C   UNL     1      16.578  -7.575 -34.188  1.00  0.00     0.001 A 
HETATM   30  C   UNL     1      16.454  -7.616 -32.800  1.00  0.00     0.014 A 
ENDBRANCH  22  25
ENDBRANCH   2  17
TORSDOF 6
ENDMDL
MODEL 4
REMARK VINA RESULT:      -6.5     11.258     13.982
REMARK  6 active torsions:
REMARK  status: ('A' for Active; 'I' for Inactive)
REMARK    1  A    between atoms: C_2  and  C_3 
REMARK    2  A    between atoms: C_2  and  N_16 
REMARK       I    between atoms: C_3  and  N_5 
REMARK    3  A    between atoms: N_5  and  C_6 
REMARK    4  A    between atoms: C_8  and  O_14 
REMARK    5  A    between atoms: C_11  and  O_12 
REMARK    6  A    between atoms: C_21  and  C_22 
ROOT
HETATM    1  C   UNL     1      13.287  -5.414 -14.496  1.00  0.00     0.044 C 
HETATM    2  C   UNL     1      14.342  -4.623 -15.271  1.00  0.00     0.199 C 
ENDROOT
BRANCH   2   3
HETATM    3  C   UNL     1      15.084  -5.543 -16.271  1.00  0.00     0.246 C 
HETATM    4  O   UNL     1      15.929  -5.104 -17.053  1.00  0.00    -0.271 OA
HETATM    5  N   UNL     1      14.708  -6.882 -16.217  1.00  0.00    -0.323 N 
HETATM    6  HN  UNL     1      14.195  -7.197 -15.396  1.00  0.00     0.169 HD
BRANCH   5   7
HETATM    7  C   UNL     1      15.247  -7.881 -17.067  1.00  0.00     0.071 A 
HETATM    8  C   UNL     1      14.499  -8.329 -18.176  1.00  0.00     0.069 A 
HETATM    9  C   UNL     1      14.961  -9.374 -18.983  1.00  0.00     0.070 A 
HETATM   10  C   UNL     1      16.201  -9.944 -18.711  1.00  0.00     0.039 A 
HETATM   11  C   UNL     1      16.951  -9.515 -17.618  1.00  0.00     0.042 A 
HETATM   12  C   UNL     1      16.478  -8.498 -16.783  1.00  0.00     0.095 A 
BRANCH   9  13
HETATM   13  O   UNL     1      14.302  -9.942 -20.038  1.00  0.00    -0.356 OA
HETATM   14  C   UNL     1      14.242 -11.362 -20.083  1.00  0.00     0.210 C 
ENDBRANCH   9  13
BRANCH  12  15
HETATM   15  O   UNL     1      17.307  -8.237 -15.725  1.00  0.00    -0.354 OA
HETATM   16  C   UNL     1      18.193  -9.277 -15.341  1.00  0.00     0.210 C 
ENDBRANCH  12  15
ENDBRANCH   5   7
ENDBRANCH   2   3
BRANCH   2  17
HETATM   17  N   UNL     1      13.789  -3.438 -15.950  1.00  0.00    -0.244 N 
HETATM   18  C   UNL     1      13.653  -2.261 -15.238  1.00  0.00     0.262 A 
HETATM   19  O   UNL     1      13.998  -2.126 -14.064  1.00  0.00    -0.267 OA
HETATM   20  C   UNL     1      13.146  -1.091 -15.977  1.00  0.00     0.078 A 
HETATM   21  C   UNL     1      12.812  -1.188 -17.264  1.00  0.00     0.037 A 
HETATM   22  C   UNL     1      12.936  -2.522 -17.892  1.00  0.00     0.058 A 
HETATM   23  N   UNL     1      13.399  -3.568 -17.276  1.00  0.00    -0.294 N 
HETATM   24  HN  UNL     1      13.475  -4.465 -17.757  1.00  0.00     0.187 HD
BRANCH  22  25
HETATM   25  C   UNL     1      12.417  -2.651 -19.291  1.00  0.00    -0.008 A 
HETATM   26  C   UNL     1      11.055  -2.485 -19.597  1.00  0.00     0.014 A 
HETATM   27  C   UNL     1      10.603  -2.717 -20.893  1.00  0.00     0.001 A 
HETATM   28  C   UNL     1      11.492  -3.109 -21.896  1.00  0.00     0.000 A 
HETATM   29  C   UNL     1      12.852  -3.236 -21.601  1.00  0.00     0.001 A 
HETATM   30  C   UNL     1      13.308  -3.001 -20.305  1.00  0.00     0.014 A 
ENDBRANCH  22  25
ENDBRANCH   2  17
TORSDOF 6
ENDMDL
MODEL 5
REMARK VINA RESULT:      -6.4      9.472     13.130
REMARK  6 active torsions:
REMARK  status: ('A' for Active; 'I' for Inactive)
REMARK    1  A    between atoms: C_2  and  C_3 
REMARK    2  A    between atoms: C_2  and  N_16 
REMARK       I    between atoms: C_3  and  N_5 
REMARK    3  A    between atoms: N_5  and  C_6 
REMARK    4  A    between atoms: C_8  and  O_14 
REMARK    5  A    between atoms: C_11  and  O_12 
REMARK    6  A    between atoms: C_21  and  C_22 
ROOT
HETATM    1  C   UNL     1      18.392  -7.792 -20.125  1.00  0.00     0.044 C 
HETATM    2  C   UNL     1      17.026  -8.187 -19.563  1.00  0.00     0.199 C 
ENDROOT
BRANCH   2   3
HETATM    3  C   UNL     1      16.498  -7.096 -18.600  1.00  0.00     0.246 C 
HETATM    4  O   UNL     1      16.101  -6.005 -19.011  1.00  0.00    -0.271 OA
HETATM    5  N   UNL     1      16.525  -7.448 -17.253  1.00  0.00    -0.323 N 
HETATM    6  HN  UNL     1      16.633  -8.433 -17.024  1.00  0.00     0.169 HD
BRANCH   5   7
HETATM    7  C   UNL     1      16.111  -6.581 -16.210  1.00  0.00     0.071 A 
HETATM    8  C   UNL     1      14.766  -6.598 -15.783  1.00  0.00     0.069 A 
HETATM    9  C   UNL     1      14.304  -5.695 -14.820  1.00  0.00     0.070 A 
HETATM   10  C   UNL     1      15.201  -4.802 -14.240  1.00  0.00     0.039 A 
HETATM   11  C   UNL     1      16.532  -4.771 -14.652  1.00  0.00     0.042 A 
HETATM   12  C   UNL     1      16.992  -5.644 -15.644  1.00  0.00     0.095 A 
BRANCH   9  13
HETATM   13  O   UNL     1      13.018  -5.564 -14.375  1.00  0.00    -0.356 OA
HETATM   14  C   UNL     1      12.740  -4.491 -13.485  1.00  0.00     0.210 C 
ENDBRANCH   9  13
BRANCH  12  15
HETATM   15  O   UNL     1      18.306  -5.445 -15.972  1.00  0.00    -0.354 OA
HETATM   16  C   UNL     1      18.597  -4.306 -16.767  1.00  0.00     0.210 C 
ENDBRANCH  12  15
ENDBRANCH   5   7
ENDBRANCH   2   3
BRANCH   2  17
HETATM   17  N   UNL     1      16.037  -8.492 -20.612  1.00  0.00    -0.244 N 
HETATM   18  C   UNL     1      15.457  -9.747 -20.642  1.00  0.00     0.262 A 
HETATM   19  O   UNL     1      15.691 -10.629 -19.817  1.00  0.00    -0.267 OA
HETATM   20  C   UNL     1      14.436  -9.983 -21.677  1.00  0.00     0.078 A 
HETATM   21  C   UNL     1      14.119  -9.031 -22.554  1.00  0.00     0.037 A 
HETATM   22  C   UNL     1      14.864  -7.756 -22.462  1.00  0.00     0.058 A 
HETATM   23  N   UNL     1      15.755  -7.507 -21.549  1.00  0.00    -0.294 N 
HETATM   24  HN  UNL     1      16.235  -6.607 -21.521  1.00  0.00     0.187 HD
BRANCH  22  25
HETATM   25  C   UNL     1      14.607  -6.753 -23.543  1.00  0.00    -0.008 A 
HETATM   26  C   UNL     1      14.078  -5.480 -23.266  1.00  0.00     0.014 A 
HETATM   27  C   UNL     1      13.759  -4.619 -24.313  1.00  0.00     0.001 A 
HETATM   28  C   UNL     1      13.964  -5.006 -25.638  1.00  0.00     0.000 A 
HETATM   29  C   UNL     1      14.527  -6.255 -25.913  1.00  0.00     0.001 A 
HETATM   30  C   UNL     1      14.851  -7.118 -24.867  1.00  0.00     0.014 A 
ENDBRANCH  22  25
ENDBRANCH   2  17
TORSDOF 6
ENDMDL
MODEL 6
REMARK VINA RESULT:      -6.4     10.167     14.387
REMARK  6 active torsions:
REMARK  status: ('A' for Active; 'I' for Inactive)
REMARK    1  A    between atoms: C_2  and  C_3 
REMARK    2  A    between atoms: C_2  and  N_16 
REMARK       I    between atoms: C_3  and  N_5 
REMARK    3  A    between atoms: N_5  and  C_6 
REMARK    4  A    between atoms: C_8  and  O_14 
REMARK    5  A    between atoms: C_11  and  O_12 
REMARK    6  A    between atoms: C_21  and  C_22 
ROOT
HETATM    1  C   UNL     1      18.187  -4.959 -19.159  1.00  0.00     0.044 C 
HETATM    2  C   UNL     1      17.167  -5.942 -18.583  1.00  0.00     0.199 C 
ENDROOT
BRANCH   2   3
HETATM    3  C   UNL     1      16.073  -5.187 -17.789  1.00  0.00     0.246 C 
HETATM    4  O   UNL     1      14.890  -5.211 -18.131  1.00  0.00    -0.271 OA
HETATM    5  N   UNL     1      16.541  -4.481 -16.683  1.00  0.00    -0.323 N 
HETATM    6  HN  UNL     1      17.470  -4.708 -16.336  1.00  0.00     0.169 HD
BRANCH   5   7
HETATM    7  C   UNL     1      15.706  -3.703 -15.842  1.00  0.00     0.071 A 
HETATM    8  C   UNL     1      15.629  -2.307 -16.036  1.00  0.00     0.069 A 
HETATM    9  C   UNL     1      14.886  -1.499 -15.170  1.00  0.00     0.070 A 
HETATM   10  C   UNL     1      14.174  -2.092 -14.131  1.00  0.00     0.039 A 
HETATM   11  C   UNL     1      14.241  -3.468 -13.924  1.00  0.00     0.042 A 
HETATM   12  C   UNL     1      15.014  -4.278 -14.762  1.00  0.00     0.095 A 
BRANCH   9  13
HETATM   13  O   UNL     1      14.789  -0.135 -15.209  1.00  0.00    -0.356 OA
HETATM   14  C   UNL     1      15.123   0.509 -16.431  1.00  0.00     0.210 C 
ENDBRANCH   9  13
BRANCH  12  15
HETATM   15  O   UNL     1      15.018  -5.595 -14.388  1.00  0.00    -0.354 OA
HETATM   16  C   UNL     1      13.947  -6.394 -14.865  1.00  0.00     0.210 C 
ENDBRANCH  12  15
ENDBRANCH   5   7
ENDBRANCH   2   3
BRANCH   2  17
HETATM   17  N   UNL     1      16.570  -6.818 -19.606  1.00  0.00    -0.244 N 
HETATM   18  C   UNL     1      16.675  -8.189 -19.458  1.00  0.00     0.262 A 
HETATM   19  O   UNL     1      17.215  -8.735 -18.496  1.00  0.00    -0.267 OA
HETATM   20  C   UNL     1      16.015  -9.021 -20.480  1.00  0.00     0.078 A 
HETATM   21  C   UNL     1      15.376  -8.462 -21.507  1.00  0.00     0.037 A 
HETATM   22  C   UNL     1      15.398  -6.985 -21.590  1.00  0.00     0.058 A 
HETATM   23  N   UNL     1      15.951  -6.221 -20.696  1.00  0.00    -0.294 N 
HETATM   24  HN  UNL     1      15.931  -5.206 -20.794  1.00  0.00     0.187 HD
BRANCH  22  25
HETATM   25  C   UNL     1      14.808  -6.377 -22.825  1.00  0.00    -0.008 A 
HETATM   26  C   UNL     1      14.883  -7.014 -24.076  1.00  0.00     0.014 A 
HETATM   27  C   UNL     1      14.413  -6.363 -25.215  1.00  0.00     0.001 A 
HETATM   28  C   UNL     1      13.860  -5.084 -25.124  1.00  0.00     0.000 A 
HETATM   29  C   UNL     1      13.749  -4.467 -23.875  1.00  0.00     0.001 A 
HETATM   30  C   UNL     1      14.216  -5.117 -22.733  1.00  0.00     0.014 A 
ENDBRANCH  22  25
ENDBRANCH   2  17
TORSDOF 6
ENDMDL
MODEL 7
REMARK VINA RESULT:      -6.4      9.907     14.281
REMARK  6 active torsions:
REMARK  status: ('A' for Active; 'I' for Inactive)
REMARK    1  A    between atoms: C_2  and  C_3 
REMARK    2  A    between atoms: C_2  and  N_16 
REMARK       I    between atoms: C_3  and  N_5 
REMARK    3  A    between atoms: N_5  and  C_6 
REMARK    4  A    between atoms: C_8  and  O_14 
REMARK    5  A    between atoms: C_11  and  O_12 
REMARK    6  A    between atoms: C_21  and  C_22 
ROOT
HETATM    1  C   UNL     1      17.038  -5.524 -16.909  1.00  0.00     0.044 C 
HETATM    2  C   UNL     1      15.739  -6.236 -17.288  1.00  0.00     0.199 C 
ENDROOT
BRANCH   2   3
HETATM    3  C   UNL     1      14.540  -5.259 -17.207  1.00  0.00     0.246 C 
HETATM    4  O   UNL     1      13.382  -5.661 -17.088  1.00  0.00    -0.271 OA
HETATM    5  N   UNL     1      14.882  -3.912 -17.291  1.00  0.00    -0.323 N 
HETATM    6  HN  UNL     1      15.858  -3.661 -17.143  1.00  0.00     0.169 HD
BRANCH   5   7
HETATM    7  C   UNL     1      13.931  -2.860 -17.264  1.00  0.00     0.071 A 
HETATM    8  C   UNL     1      13.192  -2.561 -18.428  1.00  0.00     0.069 A 
HETATM    9  C   UNL     1      12.312  -1.475 -18.463  1.00  0.00     0.070 A 
HETATM   10  C   UNL     1      12.129  -0.711 -17.313  1.00  0.00     0.039 A 
HETATM   11  C   UNL     1      12.854  -0.992 -16.157  1.00  0.00     0.042 A 
HETATM   12  C   UNL     1      13.766  -2.052 -16.126  1.00  0.00     0.095 A 
BRANCH   9  13
HETATM   13  O   UNL     1      11.594  -1.041 -19.543  1.00  0.00    -0.356 OA
HETATM   14  C   UNL     1      11.529  -1.900 -20.673  1.00  0.00     0.210 C 
ENDBRANCH   9  13
BRANCH  12  15
HETATM   15  O   UNL     1      14.434  -2.155 -14.936  1.00  0.00    -0.354 OA
HETATM   16  C   UNL     1      13.861  -3.009 -13.958  1.00  0.00     0.210 C 
ENDBRANCH  12  15
ENDBRANCH   5   7
ENDBRANCH   2   3
BRANCH   2  17
HETATM   17  N   UNL     1      15.804  -6.886 -18.609  1.00  0.00    -0.244 N 
HETATM   18  C   UNL     1      16.473  -8.090 -18.731  1.00  0.00     0.262 A 
HETATM   19  O   UNL     1      16.999  -8.680 -17.787  1.00  0.00    -0.267 OA
HETATM   20  C   UNL     1      16.463  -8.725 -20.060  1.00  0.00     0.078 A 
HETATM   21  C   UNL     1      15.857  -8.139 -21.093  1.00  0.00     0.037 A 
HETATM   22  C   UNL     1      15.239  -6.817 -20.849  1.00  0.00     0.058 A 
HETATM   23  N   UNL     1      15.211  -6.239 -19.685  1.00  0.00    -0.294 N 
HETATM   24  HN  UNL     1      14.763  -5.330 -19.566  1.00  0.00     0.187 HD
BRANCH  22  25
HETATM   25  C   UNL     1      14.695  -6.103 -22.047  1.00  0.00    -0.008 A 
HETATM   26  C   UNL     1      14.652  -6.707 -23.316  1.00  0.00     0.014 A 
HETATM   27  C   UNL     1      14.235  -5.968 -24.421  1.00  0.00     0.001 A 
HETATM   28  C   UNL     1      13.852  -4.634 -24.279  1.00  0.00     0.000 A 
HETATM   29  C   UNL     1      13.856  -4.045 -23.012  1.00  0.00     0.001 A 
HETATM   30  C   UNL     1      14.270  -4.783 -21.903  1.00  0.00     0.014 A 
ENDBRANCH  22  25
ENDBRANCH   2  17
TORSDOF 6
ENDMDL
MODEL 8
REMARK VINA RESULT:      -6.3     10.947     14.044
REMARK  6 active torsions:
REMARK  status: ('A' for Active; 'I' for Inactive)
REMARK    1  A    between atoms: C_2  and  C_3 
REMARK    2  A    between atoms: C_2  and  N_16 
REMARK       I    between atoms: C_3  and  N_5 
REMARK    3  A    between atoms: N_5  and  C_6 
REMARK    4  A    between atoms: C_8  and  O_14 
REMARK    5  A    between atoms: C_11  and  O_12 
REMARK    6  A    between atoms: C_21  and  C_22 
ROOT
HETATM    1  C   UNL     1      13.925  -6.714 -15.018  1.00  0.00     0.044 C 
HETATM    2  C   UNL     1      14.972  -5.676 -15.421  1.00  0.00     0.199 C 
ENDROOT
BRANCH   2   3
HETATM    3  C   UNL     1      15.546  -5.999 -16.823  1.00  0.00     0.246 C 
HETATM    4  O   UNL     1      16.573  -5.465 -17.243  1.00  0.00    -0.271 OA
HETATM    5  N   UNL     1      14.802  -6.920 -17.556  1.00  0.00    -0.323 N 
HETATM    6  HN  UNL     1      14.120  -7.485 -17.054  1.00  0.00     0.169 HD
BRANCH   5   7
HETATM    7  C   UNL     1      15.140  -7.330 -18.871  1.00  0.00     0.071 A 
HETATM    8  C   UNL     1      14.856  -6.478 -19.960  1.00  0.00     0.069 A 
HETATM    9  C   UNL     1      15.095  -6.887 -21.275  1.00  0.00     0.070 A 
HETATM   10  C   UNL     1      15.667  -8.135 -21.506  1.00  0.00     0.039 A 
HETATM   11  C   UNL     1      15.951  -8.989 -20.442  1.00  0.00     0.042 A 
HETATM   12  C   UNL     1      15.678  -8.603 -19.125  1.00  0.00     0.095 A 
BRANCH   9  13
HETATM   13  O   UNL     1      14.800  -6.188 -22.413  1.00  0.00    -0.356 OA
HETATM   14  C   UNL     1      14.775  -6.911 -23.637  1.00  0.00     0.210 C 
ENDBRANCH   9  13
BRANCH  12  15
HETATM   15  O   UNL     1      15.962  -9.577 -18.207  1.00  0.00    -0.354 OA
HETATM   16  C   UNL     1      17.292  -9.616 -17.713  1.00  0.00     0.210 C 
ENDBRANCH  12  15
ENDBRANCH   5   7
ENDBRANCH   2   3
BRANCH   2  17
HETATM   17  N   UNL     1      14.466  -4.293 -15.362  1.00  0.00    -0.244 N 
HETATM   18  C   UNL     1      14.532  -3.607 -14.163  1.00  0.00     0.262 A 
HETATM   19  O   UNL     1      15.024  -4.071 -13.134  1.00  0.00    -0.267 OA
HETATM   20  C   UNL     1      14.063  -2.211 -14.169  1.00  0.00     0.078 A 
HETATM   21  C   UNL     1      13.573  -1.659 -15.280  1.00  0.00     0.037 A 
HETATM   22  C   UNL     1      13.488  -2.522 -16.478  1.00  0.00     0.058 A 
HETATM   23  N   UNL     1      13.913  -3.750 -16.514  1.00  0.00    -0.294 N 
HETATM   24  HN  UNL     1      13.841  -4.302 -17.369  1.00  0.00     0.187 HD
BRANCH  22  25
HETATM   25  C   UNL     1      12.799  -1.940 -17.673  1.00  0.00    -0.008 A 
HETATM   26  C   UNL     1      12.285  -0.631 -17.670  1.00  0.00     0.014 A 
HETATM   27  C   UNL     1      11.561  -0.168 -18.767  1.00  0.00     0.001 A 
HETATM   28  C   UNL     1      11.346  -0.991 -19.874  1.00  0.00     0.000 A 
HETATM   29  C   UNL     1      11.891  -2.278 -19.893  1.00  0.00     0.001 A 
HETATM   30  C   UNL     1      12.618  -2.743 -18.799  1.00  0.00     0.014 A 
ENDBRANCH  22  25
ENDBRANCH   2  17
TORSDOF 6
ENDMDL
MODEL 9
REMARK VINA RESULT:      -6.3     12.319     16.275
REMARK  6 active torsions:
REMARK  status: ('A' for Active; 'I' for Inactive)
REMARK    1  A    between atoms: C_2  and  C_3 
REMARK    2  A    between atoms: C_2  and  N_16 
REMARK       I    between atoms: C_3  and  N_5 
REMARK    3  A    between atoms: N_5  and  C_6 
REMARK    4  A    between atoms: C_8  and  O_14 
REMARK    5  A    between atoms: C_11  and  O_12 
REMARK    6  A    between atoms: C_21  and  C_22 
ROOT
HETATM    1  C   UNL     1      13.775  -4.353 -16.467  1.00  0.00     0.044 C 
HETATM    2  C   UNL     1      13.770  -2.824 -16.436  1.00  0.00     0.199 C 
ENDROOT
BRANCH   2   3
HETATM    3  C   UNL     1      15.217  -2.278 -16.360  1.00  0.00     0.246 C 
HETATM    4  O   UNL     1      15.839  -1.943 -17.369  1.00  0.00    -0.271 OA
HETATM    5  N   UNL     1      15.746  -2.215 -15.073  1.00  0.00    -0.323 N 
HETATM    6  HN  UNL     1      15.098  -2.277 -14.291  1.00  0.00     0.169 HD
BRANCH   5   7
HETATM    7  C   UNL     1      17.063  -1.771 -14.790  1.00  0.00     0.071 A 
HETATM    8  C   UNL     1      18.099  -2.717 -14.640  1.00  0.00     0.069 A 
HETATM    9  C   UNL     1      19.389  -2.320 -14.274  1.00  0.00     0.070 A 
HETATM   10  C   UNL     1      19.661  -0.966 -14.103  1.00  0.00     0.039 A 
HETATM   11  C   UNL     1      18.648  -0.019 -14.244  1.00  0.00     0.042 A 
HETATM   12  C   UNL     1      17.346  -0.412 -14.572  1.00  0.00     0.095 A 
BRANCH   9  13
HETATM   13  O   UNL     1      20.456  -3.140 -14.030  1.00  0.00    -0.356 OA
HETATM   14  C   UNL     1      21.545  -2.596 -13.297  1.00  0.00     0.210 C 
ENDBRANCH   9  13
BRANCH  12  15
HETATM   15  O   UNL     1      16.462   0.633 -14.616  1.00  0.00    -0.354 OA
HETATM   16  C   UNL     1      16.551   1.493 -15.740  1.00  0.00     0.210 C 
ENDBRANCH  12  15
ENDBRANCH   5   7
ENDBRANCH   2   3
BRANCH   2  17
HETATM   17  N   UNL     1      13.038  -2.228 -17.567  1.00  0.00    -0.244 N 
HETATM   18  C   UNL     1      12.209  -1.146 -17.332  1.00  0.00     0.262 A 
HETATM   19  O   UNL     1      12.065  -0.620 -16.229  1.00  0.00    -0.267 OA
HETATM   20  C   UNL     1      11.541  -0.552 -18.504  1.00  0.00     0.078 A 
HETATM   21  C   UNL     1      11.717  -1.064 -19.722  1.00  0.00     0.037 A 
HETATM   22  C   UNL     1      12.571  -2.267 -19.830  1.00  0.00     0.058 A 
HETATM   23  N   UNL     1      13.192  -2.803 -18.821  1.00  0.00    -0.294 N 
HETATM   24  HN  UNL     1      13.779  -3.628 -18.949  1.00  0.00     0.187 HD
BRANCH  22  25
HETATM   25  C   UNL     1      12.639  -2.920 -21.176  1.00  0.00    -0.008 A 
HETATM   26  C   UNL     1      11.505  -3.046 -21.999  1.00  0.00     0.014 A 
HETATM   27  C   UNL     1      11.593  -3.752 -23.196  1.00  0.00     0.001 A 
HETATM   28  C   UNL     1      12.800  -4.332 -23.591  1.00  0.00     0.000 A 
HETATM   29  C   UNL     1      13.936  -4.173 -22.793  1.00  0.00     0.001 A 
HETATM   30  C   UNL     1      13.852  -3.464 -21.596  1.00  0.00     0.014 A 
ENDBRANCH  22  25
ENDBRANCH   2  17
TORSDOF 6
ENDMDL
