MODEL 1
REMARK VINA RESULT:      -8.1      0.000      0.000
REMARK  6 active torsions:
REMARK  status: ('A' for Active; 'I' for Inactive)
REMARK    1  A    between atoms: C_2  and  C_4 
REMARK    2  A    between atoms: C_10  and  O_11 
REMARK    3  A    between atoms: O_11  and  C_12 
REMARK    4  A    between atoms: C_12  and  C_14 
REMARK    5  A    between atoms: C_20  and  C_21 
REMARK    6  A    between atoms: C_22  and  C_23 
ROOT
HETATM    1  C   UNL     1      11.871  -4.686 -19.384  1.00  0.00     0.010 C 
HETATM    2  C   UNL     1      12.500  -3.805 -18.292  1.00  0.00    -0.016 C 
HETATM    3  C   UNL     1      13.494  -4.686 -17.520  1.00  0.00     0.010 C 
ENDROOT
BRANCH   2   4
HETATM    4  C   UNL     1      13.173  -2.510 -18.858  1.00  0.00     0.018 C 
HETATM    5  C   UNL     1      12.321  -1.814 -19.945  1.00  0.00     0.008 C 
HETATM    6  C   UNL     1      11.059  -1.143 -19.410  1.00  0.00     0.005 C 
HETATM    7  C   UNL     1      11.318  -0.195 -18.232  1.00  0.00    -0.016 C 
HETATM    8  C   UNL     1      11.800   1.181 -18.698  1.00  0.00     0.010 C 
HETATM    9  C   UNL     1      12.263  -0.808 -17.187  1.00  0.00     0.037 C 
HETATM   10  C   UNL     1      13.528  -1.463 -17.758  1.00  0.00     0.137 C 
BRANCH  10  11
HETATM   11  O   UNL     1      14.439  -0.494 -18.334  1.00  0.00    -0.312 OA
BRANCH  11  12
HETATM   12  C   UNL     1      15.693  -0.426 -17.810  1.00  0.00     0.292 C 
HETATM   13  O   UNL     1      15.949  -0.455 -16.616  1.00  0.00    -0.259 OA
BRANCH  12  14
HETATM   14  C   UNL     1      16.730  -0.444 -18.885  1.00  0.00     0.051 C 
HETATM   15  C   UNL     1      17.307   0.691 -19.382  1.00  0.00     0.019 C 
HETATM   16  C   UNL     1      16.864   2.106 -19.098  1.00  0.00     0.069 C 
HETATM   17  N   UNL     1      18.437   0.601 -20.212  1.00  0.00    -0.358 N 
HETATM   18  C   UNL     1      19.110  -0.577 -20.346  1.00  0.00     0.055 A 
HETATM   19  HN  UNL     1      18.933   1.460 -20.425  1.00  0.00     0.166 HD
HETATM   20  C   UNL     1      18.613  -1.736 -19.901  1.00  0.00     0.033 A 
HETATM   21  C   UNL     1      20.417  -0.801 -20.944  1.00  0.00     0.005 A 
HETATM   22  C   UNL     1      17.267  -1.837 -19.279  1.00  0.00     0.088 C 
HETATM   23  C   UNL     1      19.593  -2.803 -20.136  1.00  0.00     0.192 A 
HETATM   24  O   UNL     1      19.505  -3.965 -19.810  1.00  0.00    -0.287 OA
HETATM   25  C   UNL     1      20.714  -2.161 -20.824  1.00  0.00     0.027 A 
HETATM   26  C   UNL     1      21.878  -2.732 -21.305  1.00  0.00     0.016 A 
HETATM   27  C   UNL     1      22.783  -1.883 -21.939  1.00  0.00     0.001 A 
HETATM   28  C   UNL     1      22.506  -0.507 -22.066  1.00  0.00     0.001 A 
HETATM   29  C   UNL     1      21.316   0.044 -21.566  1.00  0.00     0.014 A 
BRANCH  22  30
HETATM   30  C   UNL     1      16.334  -2.500 -20.269  1.00  0.00    -0.011 C 
HETATM   31  C   UNL     1      16.095  -3.819 -20.283  1.00  0.00     0.008 C 
BRANCH  31  32
HETATM   32  C   UNL     1      15.155  -4.489 -21.187  1.00  0.00    -0.036 A 
HETATM   33  C   UNL     1      14.494  -3.719 -22.151  1.00  0.00     0.011 A 
HETATM   34  C   UNL     1      13.657  -4.323 -23.090  1.00  0.00     0.001 A 
HETATM   35  C   UNL     1      13.485  -5.706 -23.081  1.00  0.00     0.000 A 
HETATM   36  C   UNL     1      14.150  -6.486 -22.137  1.00  0.00     0.001 A 
HETATM   37  C   UNL     1      14.986  -5.880 -21.196  1.00  0.00     0.011 A 
ENDBRANCH  31  32
ENDBRANCH  22  30
ENDBRANCH  12  14
ENDBRANCH  11  12
ENDBRANCH  10  11
ENDBRANCH   2   4
TORSDOF 6
ENDMDL
MODEL 2
REMARK VINA RESULT:      -7.9      3.095      5.098
REMARK  6 active torsions:
REMARK  status: ('A' for Active; 'I' for Inactive)
REMARK    1  A    between atoms: C_2  and  C_4 
REMARK    2  A    between atoms: C_10  and  O_11 
REMARK    3  A    between atoms: O_11  and  C_12 
REMARK    4  A    between atoms: C_12  and  C_14 
REMARK    5  A    between atoms: C_20  and  C_21 
REMARK    6  A    between atoms: C_22  and  C_23 
ROOT
HETATM    1  C   UNL     1      15.857  -7.088 -20.946  1.00  0.00     0.010 C 
HETATM    2  C   UNL     1      16.469  -6.716 -19.586  1.00  0.00    -0.016 C 
HETATM    3  C   UNL     1      17.847  -6.100 -19.865  1.00  0.00     0.010 C 
ENDROOT
BRANCH   2   4
HETATM    4  C   UNL     1      15.556  -5.766 -18.740  1.00  0.00     0.018 C 
HETATM    5  C   UNL     1      14.121  -6.314 -18.557  1.00  0.00     0.008 C 
HETATM    6  C   UNL     1      14.032  -7.522 -17.628  1.00  0.00     0.005 C 
HETATM    7  C   UNL     1      14.711  -7.306 -16.270  1.00  0.00    -0.016 C 
HETATM    8  C   UNL     1      13.809  -6.544 -15.294  1.00  0.00     0.010 C 
HETATM    9  C   UNL     1      16.092  -6.647 -16.406  1.00  0.00     0.037 C 
HETATM   10  C   UNL     1      16.143  -5.427 -17.336  1.00  0.00     0.137 C 
BRANCH  10  11
HETATM   11  O   UNL     1      15.413  -4.295 -16.801  1.00  0.00    -0.312 OA
BRANCH  11  12
HETATM   12  C   UNL     1      16.141  -3.243 -16.338  1.00  0.00     0.292 C 
HETATM   13  O   UNL     1      17.057  -3.334 -15.534  1.00  0.00    -0.259 OA
BRANCH  12  14
HETATM   14  C   UNL     1      15.768  -1.977 -17.036  1.00  0.00     0.051 C 
HETATM   15  C   UNL     1      14.928  -1.046 -16.491  1.00  0.00     0.019 C 
HETATM   16  C   UNL     1      14.100  -1.225 -15.241  1.00  0.00     0.069 C 
HETATM   17  N   UNL     1      14.804   0.222 -17.083  1.00  0.00    -0.358 N 
HETATM   18  C   UNL     1      15.674   0.626 -18.052  1.00  0.00     0.055 A 
HETATM   19  HN  UNL     1      14.305   0.936 -16.562  1.00  0.00     0.166 HD
HETATM   20  C   UNL     1      16.521  -0.221 -18.646  1.00  0.00     0.033 A 
HETATM   21  C   UNL     1      15.859   1.965 -18.589  1.00  0.00     0.005 A 
HETATM   22  C   UNL     1      16.539  -1.675 -18.339  1.00  0.00     0.088 C 
HETATM   23  C   UNL     1      17.361   0.523 -19.592  1.00  0.00     0.192 A 
HETATM   24  O   UNL     1      18.273   0.091 -20.262  1.00  0.00    -0.287 OA
HETATM   25  C   UNL     1      16.885   1.906 -19.536  1.00  0.00     0.027 A 
HETATM   26  C   UNL     1      17.314   3.001 -20.263  1.00  0.00     0.016 A 
HETATM   27  C   UNL     1      16.672   4.213 -20.019  1.00  0.00     0.001 A 
HETATM   28  C   UNL     1      15.638   4.296 -19.065  1.00  0.00     0.001 A 
HETATM   29  C   UNL     1      15.225   3.167 -18.340  1.00  0.00     0.014 A 
BRANCH  22  30
HETATM   30  C   UNL     1      15.914  -2.414 -19.503  1.00  0.00    -0.011 C 
HETATM   31  C   UNL     1      14.594  -2.438 -19.734  1.00  0.00     0.008 C 
BRANCH  31  32
HETATM   32  C   UNL     1      13.958  -3.093 -20.881  1.00  0.00    -0.036 A 
HETATM   33  C   UNL     1      12.565  -3.016 -21.004  1.00  0.00     0.011 A 
HETATM   34  C   UNL     1      11.921  -3.547 -22.122  1.00  0.00     0.001 A 
HETATM   35  C   UNL     1      12.667  -4.148 -23.135  1.00  0.00     0.000 A 
HETATM   36  C   UNL     1      14.055  -4.217 -23.033  1.00  0.00     0.001 A 
HETATM   37  C   UNL     1      14.698  -3.686 -21.912  1.00  0.00     0.011 A 
ENDBRANCH  31  32
ENDBRANCH  22  30
ENDBRANCH  12  14
ENDBRANCH  11  12
ENDBRANCH  10  11
ENDBRANCH   2   4
TORSDOF 6
ENDMDL
MODEL 3
REMARK VINA RESULT:      -7.8      3.096      4.766
REMARK  6 active torsions:
REMARK  status: ('A' for Active; 'I' for Inactive)
REMARK    1  A    between atoms: C_2  and  C_4 
REMARK    2  A    between atoms: C_10  and  O_11 
REMARK    3  A    between atoms: O_11  and  C_12 
REMARK    4  A    between atoms: C_12  and  C_14 
REMARK    5  A    between atoms: C_20  and  C_21 
REMARK    6  A    between atoms: C_22  and  C_23 
ROOT
HETATM    1  C   UNL     1      14.005  -6.529 -19.595  1.00  0.00     0.010 C 
HETATM    2  C   UNL     1      14.999  -6.437 -18.426  1.00  0.00    -0.016 C 
HETATM    3  C   UNL     1      16.409  -6.539 -19.025  1.00  0.00     0.010 C 
ENDROOT
BRANCH   2   4
HETATM    4  C   UNL     1      14.814  -5.145 -17.562  1.00  0.00     0.018 C 
HETATM    5  C   UNL     1      13.329  -4.805 -17.294  1.00  0.00     0.008 C 
HETATM    6  C   UNL     1      12.637  -5.766 -16.331  1.00  0.00     0.005 C 
HETATM    7  C   UNL     1      13.395  -5.969 -15.013  1.00  0.00    -0.016 C 
HETATM    8  C   UNL     1      13.123  -4.841 -14.015  1.00  0.00     0.010 C 
HETATM    9  C   UNL     1      14.900  -6.187 -15.234  1.00  0.00     0.037 C 
HETATM   10  C   UNL     1      15.568  -5.196 -16.198  1.00  0.00     0.137 C 
BRANCH  10  11
HETATM   11  O   UNL     1      15.618  -3.852 -15.658  1.00  0.00    -0.312 OA
BRANCH  11  12
HETATM   12  C   UNL     1      16.669  -3.069 -16.026  1.00  0.00     0.292 C 
HETATM   13  O   UNL     1      17.844  -3.376 -15.889  1.00  0.00    -0.259 OA
BRANCH  12  14
HETATM   14  C   UNL     1      16.206  -1.843 -16.740  1.00  0.00     0.051 C 
HETATM   15  C   UNL     1      15.397  -0.905 -16.161  1.00  0.00     0.019 C 
HETATM   16  C   UNL     1      14.689  -1.045 -14.835  1.00  0.00     0.069 C 
HETATM   17  N   UNL     1      15.192   0.334 -16.792  1.00  0.00    -0.358 N 
HETATM   18  C   UNL     1      15.963   0.711 -17.852  1.00  0.00     0.055 A 
HETATM   19  HN  UNL     1      14.725   1.060 -16.258  1.00  0.00     0.166 HD
HETATM   20  C   UNL     1      16.772  -0.145 -18.484  1.00  0.00     0.033 A 
HETATM   21  C   UNL     1      16.068   2.028 -18.459  1.00  0.00     0.005 A 
HETATM   22  C   UNL     1      16.850  -1.583 -18.119  1.00  0.00     0.088 C 
HETATM   23  C   UNL     1      17.507   0.573 -19.532  1.00  0.00     0.192 A 
HETATM   24  O   UNL     1      18.364   0.129 -20.263  1.00  0.00    -0.287 OA
HETATM   25  C   UNL     1      17.006   1.948 -19.492  1.00  0.00     0.027 A 
HETATM   26  C   UNL     1      17.343   3.018 -20.300  1.00  0.00     0.016 A 
HETATM   27  C   UNL     1      16.698   4.227 -20.051  1.00  0.00     0.001 A 
HETATM   28  C   UNL     1      15.752   4.332 -19.011  1.00  0.00     0.001 A 
HETATM   29  C   UNL     1      15.432   3.228 -18.205  1.00  0.00     0.014 A 
BRANCH  22  30
HETATM   30  C   UNL     1      16.141  -2.385 -19.190  1.00  0.00    -0.011 C 
HETATM   31  C   UNL     1      14.860  -2.183 -19.530  1.00  0.00     0.008 C 
BRANCH  31  32
HETATM   32  C   UNL     1      14.156  -2.898 -20.600  1.00  0.00    -0.036 A 
HETATM   33  C   UNL     1      12.760  -2.814 -20.650  1.00  0.00     0.011 A 
HETATM   34  C   UNL     1      12.052  -3.404 -21.698  1.00  0.00     0.001 A 
HETATM   35  C   UNL     1      12.735  -4.071 -22.713  1.00  0.00     0.000 A 
HETATM   36  C   UNL     1      14.126  -4.147 -22.683  1.00  0.00     0.001 A 
HETATM   37  C   UNL     1      14.835  -3.558 -21.633  1.00  0.00     0.011 A 
ENDBRANCH  31  32
ENDBRANCH  22  30
ENDBRANCH  12  14
ENDBRANCH  11  12
ENDBRANCH  10  11
ENDBRANCH   2   4
TORSDOF 6
ENDMDL
MODEL 4
REMARK VINA RESULT:      -7.8      1.105      1.473
REMARK  6 active torsions:
REMARK  status: ('A' for Active; 'I' for Inactive)
REMARK    1  A    between atoms: C_2  and  C_4 
REMARK    2  A    between atoms: C_10  and  O_11 
REMARK    3  A    between atoms: O_11  and  C_12 
REMARK    4  A    between atoms: C_12  and  C_14 
REMARK    5  A    between atoms: C_20  and  C_21 
REMARK    6  A    between atoms: C_22  and  C_23 
ROOT
HETATM    1  C   UNL     1      12.767  -4.643 -18.569  1.00  0.00     0.010 C 
HETATM    2  C   UNL     1      13.207  -3.508 -17.631  1.00  0.00    -0.016 C 
HETATM    3  C   UNL     1      14.388  -4.038 -16.805  1.00  0.00     0.010 C 
ENDROOT
BRANCH   2   4
HETATM    4  C   UNL     1      13.562  -2.185 -18.390  1.00  0.00     0.018 C 
HETATM    5  C   UNL     1      12.539  -1.831 -19.494  1.00  0.00     0.008 C 
HETATM    6  C   UNL     1      11.183  -1.375 -18.962  1.00  0.00     0.005 C 
HETATM    7  C   UNL     1      11.277  -0.249 -17.924  1.00  0.00    -0.016 C 
HETATM    8  C   UNL     1      11.431   1.125 -18.582  1.00  0.00     0.010 C 
HETATM    9  C   UNL     1      12.371  -0.509 -16.878  1.00  0.00     0.037 C 
HETATM   10  C   UNL     1      13.725  -0.953 -17.448  1.00  0.00     0.137 C 
BRANCH  10  11
HETATM   11  O   UNL     1      14.382   0.102 -18.194  1.00  0.00    -0.312 OA
BRANCH  11  12
HETATM   12  C   UNL     1      15.558   0.577 -17.701  1.00  0.00     0.292 C 
HETATM   13  O   UNL     1      15.691   1.098 -16.603  1.00  0.00    -0.259 OA
BRANCH  12  14
HETATM   14  C   UNL     1      16.694   0.263 -18.617  1.00  0.00     0.051 C 
HETATM   15  C   UNL     1      17.121   1.119 -19.595  1.00  0.00     0.019 C 
HETATM   16  C   UNL     1      16.414   2.377 -20.040  1.00  0.00     0.069 C 
HETATM   17  N   UNL     1      18.334   0.878 -20.261  1.00  0.00    -0.358 N 
HETATM   18  C   UNL     1      19.209  -0.059 -19.797  1.00  0.00     0.055 A 
HETATM   19  HN  UNL     1      18.696   1.616 -20.857  1.00  0.00     0.166 HD
HETATM   20  C   UNL     1      18.871  -0.942 -18.852  1.00  0.00     0.033 A 
HETATM   21  C   UNL     1      20.593  -0.268 -20.193  1.00  0.00     0.005 A 
HETATM   22  C   UNL     1      17.502  -1.008 -18.278  1.00  0.00     0.088 C 
HETATM   23  C   UNL     1      20.038  -1.770 -18.527  1.00  0.00     0.192 A 
HETATM   24  O   UNL     1      20.115  -2.631 -17.679  1.00  0.00    -0.287 OA
HETATM   25  C   UNL     1      21.103  -1.317 -19.424  1.00  0.00     0.027 A 
HETATM   26  C   UNL     1      22.393  -1.798 -19.551  1.00  0.00     0.016 A 
HETATM   27  C   UNL     1      23.204  -1.187 -20.505  1.00  0.00     0.001 A 
HETATM   28  C   UNL     1      22.712  -0.124 -21.288  1.00  0.00     0.001 A 
HETATM   29  C   UNL     1      21.397   0.345 -21.134  1.00  0.00     0.014 A 
BRANCH  22  30
HETATM   30  C   UNL     1      16.810  -2.234 -18.835  1.00  0.00    -0.011 C 
HETATM   31  C   UNL     1      16.534  -2.392 -20.137  1.00  0.00     0.008 C 
BRANCH  31  32
HETATM   32  C   UNL     1      15.919  -3.588 -20.722  1.00  0.00    -0.036 A 
HETATM   33  C   UNL     1      16.299  -4.842 -20.228  1.00  0.00     0.011 A 
HETATM   34  C   UNL     1      15.680  -6.003 -20.691  1.00  0.00     0.001 A 
HETATM   35  C   UNL     1      14.665  -5.920 -21.641  1.00  0.00     0.000 A 
HETATM   36  C   UNL     1      14.265  -4.677 -22.129  1.00  0.00     0.001 A 
HETATM   37  C   UNL     1      14.887  -3.515 -21.666  1.00  0.00     0.011 A 
ENDBRANCH  31  32
ENDBRANCH  22  30
ENDBRANCH  12  14
ENDBRANCH  11  12
ENDBRANCH  10  11
ENDBRANCH   2   4
TORSDOF 6
ENDMDL
MODEL 5
REMARK VINA RESULT:      -7.6      2.959      4.772
REMARK  6 active torsions:
REMARK  status: ('A' for Active; 'I' for Inactive)
REMARK    1  A    between atoms: C_2  and  C_4 
REMARK    2  A    between atoms: C_10  and  O_11 
REMARK    3  A    between atoms: O_11  and  C_12 
REMARK    4  A    between atoms: C_12  and  C_14 
REMARK    5  A    between atoms: C_20  and  C_21 
REMARK    6  A    between atoms: C_22  and  C_23 
ROOT
HETATM    1  C   UNL     1      16.880  -8.101 -18.832  1.00  0.00     0.010 C 
HETATM    2  C   UNL     1      15.958  -7.588 -17.714  1.00  0.00    -0.016 C 
HETATM    3  C   UNL     1      16.776  -7.601 -16.414  1.00  0.00     0.010 C 
ENDROOT
BRANCH   2   4
HETATM    4  C   UNL     1      15.349  -6.178 -18.017  1.00  0.00     0.018 C 
HETATM    5  C   UNL     1      14.683  -6.095 -19.410  1.00  0.00     0.008 C 
HETATM    6  C   UNL     1      13.380  -6.882 -19.522  1.00  0.00     0.005 C 
HETATM    7  C   UNL     1      12.369  -6.559 -18.415  1.00  0.00    -0.016 C 
HETATM    8  C   UNL     1      11.575  -5.285 -18.717  1.00  0.00     0.010 C 
HETATM    9  C   UNL     1      13.021  -6.510 -17.025  1.00  0.00     0.037 C 
HETATM   10  C   UNL     1      14.323  -5.701 -16.944  1.00  0.00     0.137 C 
BRANCH  10  11
HETATM   11  O   UNL     1      14.101  -4.280 -17.131  1.00  0.00    -0.312 OA
BRANCH  11  12
HETATM   12  C   UNL     1      15.058  -3.432 -16.668  1.00  0.00     0.292 C 
HETATM   13  O   UNL     1      15.924  -3.736 -15.861  1.00  0.00    -0.259 OA
BRANCH  12  14
HETATM   14  C   UNL     1      14.999  -2.115 -17.369  1.00  0.00     0.051 C 
HETATM   15  C   UNL     1      14.257  -1.061 -16.912  1.00  0.00     0.019 C 
HETATM   16  C   UNL     1      13.245  -1.111 -15.792  1.00  0.00     0.069 C 
HETATM   17  N   UNL     1      14.427   0.215 -17.474  1.00  0.00    -0.358 N 
HETATM   18  C   UNL     1      15.477   0.477 -18.303  1.00  0.00     0.055 A 
HETATM   19  HN  UNL     1      13.984   0.998 -17.003  1.00  0.00     0.166 HD
HETATM   20  C   UNL     1      16.247  -0.494 -18.805  1.00  0.00     0.033 A 
HETATM   21  C   UNL     1      15.953   1.771 -18.767  1.00  0.00     0.005 A 
HETATM   22  C   UNL     1      15.982  -1.933 -18.545  1.00  0.00     0.088 C 
HETATM   23  C   UNL     1      17.322   0.107 -19.603  1.00  0.00     0.192 A 
HETATM   24  O   UNL     1      18.233  -0.465 -20.157  1.00  0.00    -0.287 OA
HETATM   25  C   UNL     1      17.076   1.550 -19.568  1.00  0.00     0.027 A 
HETATM   26  C   UNL     1      17.777   2.564 -20.194  1.00  0.00     0.016 A 
HETATM   27  C   UNL     1      17.315   3.864 -20.000  1.00  0.00     0.001 A 
HETATM   28  C   UNL     1      16.187   4.111 -19.193  1.00  0.00     0.001 A 
HETATM   29  C   UNL     1      15.497   3.060 -18.567  1.00  0.00     0.014 A 
BRANCH  22  30
HETATM   30  C   UNL     1      15.412  -2.547 -19.806  1.00  0.00    -0.011 C 
HETATM   31  C   UNL     1      14.099  -2.595 -20.070  1.00  0.00     0.008 C 
BRANCH  31  32
HETATM   32  C   UNL     1      13.513  -3.127 -21.304  1.00  0.00    -0.036 A 
HETATM   33  C   UNL     1      14.356  -3.772 -22.218  1.00  0.00     0.011 A 
HETATM   34  C   UNL     1      13.832  -4.372 -23.364  1.00  0.00     0.001 A 
HETATM   35  C   UNL     1      12.459  -4.343 -23.599  1.00  0.00     0.000 A 
HETATM   36  C   UNL     1      11.608  -3.719 -22.690  1.00  0.00     0.001 A 
HETATM   37  C   UNL     1      12.133  -3.117 -21.544  1.00  0.00     0.011 A 
ENDBRANCH  31  32
ENDBRANCH  22  30
ENDBRANCH  12  14
ENDBRANCH  11  12
ENDBRANCH  10  11
ENDBRANCH   2   4
TORSDOF 6
ENDMDL
MODEL 6
REMARK VINA RESULT:      -7.6      3.187      6.988
REMARK  6 active torsions:
REMARK  status: ('A' for Active; 'I' for Inactive)
REMARK    1  A    between atoms: C_2  and  C_4 
REMARK    2  A    between atoms: C_10  and  O_11 
REMARK    3  A    between atoms: O_11  and  C_12 
REMARK    4  A    between atoms: C_12  and  C_14 
REMARK    5  A    between atoms: C_20  and  C_21 
REMARK    6  A    between atoms: C_22  and  C_23 
ROOT
HETATM    1  C   UNL     1      21.135   1.259 -21.233  1.00  0.00     0.010 C 
HETATM    2  C   UNL     1      19.607   1.111 -21.163  1.00  0.00    -0.016 C 
HETATM    3  C   UNL     1      19.233  -0.110 -22.016  1.00  0.00     0.010 C 
ENDROOT
BRANCH   2   4
HETATM    4  C   UNL     1      19.066   0.999 -19.698  1.00  0.00     0.018 C 
HETATM    5  C   UNL     1      19.474   2.198 -18.811  1.00  0.00     0.008 C 
HETATM    6  C   UNL     1      18.764   3.502 -19.166  1.00  0.00     0.005 C 
HETATM    7  C   UNL     1      17.237   3.372 -19.238  1.00  0.00    -0.016 C 
HETATM    8  C   UNL     1      16.590   3.447 -17.852  1.00  0.00     0.010 C 
HETATM    9  C   UNL     1      16.794   2.119 -20.009  1.00  0.00     0.037 C 
HETATM   10  C   UNL     1      17.518   0.824 -19.619  1.00  0.00     0.137 C 
BRANCH  10  11
HETATM   11  O   UNL     1      17.181   0.386 -18.279  1.00  0.00    -0.312 OA
BRANCH  11  12
HETATM   12  C   UNL     1      16.159  -0.504 -18.151  1.00  0.00     0.292 C 
HETATM   13  O   UNL     1      14.995  -0.269 -18.437  1.00  0.00    -0.259 OA
BRANCH  12  14
HETATM   14  C   UNL     1      16.661  -1.848 -17.740  1.00  0.00     0.051 C 
HETATM   15  C   UNL     1      16.746  -2.244 -16.434  1.00  0.00     0.019 C 
HETATM   16  C   UNL     1      16.560  -1.357 -15.226  1.00  0.00     0.069 C 
HETATM   17  N   UNL     1      16.995  -3.591 -16.121  1.00  0.00    -0.358 N 
HETATM   18  C   UNL     1      16.924  -4.554 -17.085  1.00  0.00     0.055 A 
HETATM   19  HN  UNL     1      16.887  -3.876 -15.153  1.00  0.00     0.166 HD
HETATM   20  C   UNL     1      16.851  -4.255 -18.386  1.00  0.00     0.033 A 
HETATM   21  C   UNL     1      16.899  -5.998 -16.909  1.00  0.00     0.005 A 
HETATM   22  C   UNL     1      16.901  -2.856 -18.885  1.00  0.00     0.088 C 
HETATM   23  C   UNL     1      16.725  -5.496 -19.158  1.00  0.00     0.192 A 
HETATM   24  O   UNL     1      16.579  -5.605 -20.356  1.00  0.00    -0.287 OA
HETATM   25  C   UNL     1      16.784  -6.579 -18.175  1.00  0.00     0.027 A 
HETATM   26  C   UNL     1      16.750  -7.945 -18.386  1.00  0.00     0.016 A 
HETATM   27  C   UNL     1      16.838  -8.761 -17.260  1.00  0.00     0.001 A 
HETATM   28  C   UNL     1      16.950  -8.196 -15.973  1.00  0.00     0.001 A 
HETATM   29  C   UNL     1      16.979  -6.804 -15.790  1.00  0.00     0.014 A 
BRANCH  22  30
HETATM   30  C   UNL     1      18.258  -2.623 -19.514  1.00  0.00    -0.011 C 
HETATM   31  C   UNL     1      19.378  -2.447 -18.799  1.00  0.00     0.008 C 
BRANCH  31  32
HETATM   32  C   UNL     1      20.717  -2.277 -19.370  1.00  0.00    -0.036 A 
HETATM   33  C   UNL     1      20.960  -2.774 -20.657  1.00  0.00     0.011 A 
HETATM   34  C   UNL     1      22.191  -2.560 -21.279  1.00  0.00     0.001 A 
HETATM   35  C   UNL     1      23.185  -1.836 -20.624  1.00  0.00     0.000 A 
HETATM   36  C   UNL     1      22.951  -1.322 -19.351  1.00  0.00     0.001 A 
HETATM   37  C   UNL     1      21.719  -1.537 -18.728  1.00  0.00     0.011 A 
ENDBRANCH  31  32
ENDBRANCH  22  30
ENDBRANCH  12  14
ENDBRANCH  11  12
ENDBRANCH  10  11
ENDBRANCH   2   4
TORSDOF 6
ENDMDL
MODEL 7
REMARK VINA RESULT:      -7.5      2.625      4.296
REMARK  6 active torsions:
REMARK  status: ('A' for Active; 'I' for Inactive)
REMARK    1  A    between atoms: C_2  and  C_4 
REMARK    2  A    between atoms: C_10  and  O_11 
REMARK    3  A    between atoms: O_11  and  C_12 
REMARK    4  A    between atoms: C_12  and  C_14 
REMARK    5  A    between atoms: C_20  and  C_21 
REMARK    6  A    between atoms: C_22  and  C_23 
ROOT
HETATM    1  C   UNL     1      12.441  -6.249 -19.765  1.00  0.00     0.010 C 
HETATM    2  C   UNL     1      13.778  -6.658 -19.126  1.00  0.00    -0.016 C 
HETATM    3  C   UNL     1      14.743  -6.990 -20.273  1.00  0.00     0.010 C 
ENDROOT
BRANCH   2   4
HETATM    4  C   UNL     1      14.357  -5.570 -18.161  1.00  0.00     0.018 C 
HETATM    5  C   UNL     1      13.271  -4.900 -17.287  1.00  0.00     0.008 C 
HETATM    6  C   UNL     1      12.695  -5.811 -16.206  1.00  0.00     0.005 C 
HETATM    7  C   UNL     1      13.764  -6.479 -15.331  1.00  0.00    -0.016 C 
HETATM    8  C   UNL     1      14.260  -5.548 -14.221  1.00  0.00     0.010 C 
HETATM    9  C   UNL     1      14.924  -7.050 -16.161  1.00  0.00     0.037 C 
HETATM   10  C   UNL     1      15.488  -6.104 -17.229  1.00  0.00     0.137 C 
BRANCH  10  11
HETATM   11  O   UNL     1      16.172  -4.964 -16.651  1.00  0.00    -0.312 OA
BRANCH  11  12
HETATM   12  C   UNL     1      17.279  -4.505 -17.297  1.00  0.00     0.292 C 
HETATM   13  O   UNL     1      18.261  -5.183 -17.559  1.00  0.00    -0.259 OA
BRANCH  12  14
HETATM   14  C   UNL     1      17.088  -3.100 -17.765  1.00  0.00     0.051 C 
HETATM   15  C   UNL     1      16.707  -2.084 -16.932  1.00  0.00     0.019 C 
HETATM   16  C   UNL     1      16.227  -2.239 -15.509  1.00  0.00     0.069 C 
HETATM   17  N   UNL     1      16.776  -0.751 -17.371  1.00  0.00    -0.358 N 
HETATM   18  C   UNL     1      17.432  -0.431 -18.523  1.00  0.00     0.055 A 
HETATM   19  HN  UNL     1      16.646  -0.022 -16.677  1.00  0.00     0.166 HD
HETATM   20  C   UNL     1      17.828  -1.360 -19.399  1.00  0.00     0.033 A 
HETATM   21  C   UNL     1      17.820   0.888 -18.997  1.00  0.00     0.005 A 
HETATM   22  C   UNL     1      17.534  -2.805 -19.212  1.00  0.00     0.088 C 
HETATM   23  C   UNL     1      18.554  -0.710 -20.496  1.00  0.00     0.192 A 
HETATM   24  O   UNL     1      19.101  -1.245 -21.433  1.00  0.00    -0.287 OA
HETATM   25  C   UNL     1      18.500   0.724 -20.206  1.00  0.00     0.027 A 
HETATM   26  C   UNL     1      18.998   1.779 -20.949  1.00  0.00     0.016 A 
HETATM   27  C   UNL     1      18.796   3.060 -20.443  1.00  0.00     0.001 A 
HETATM   28  C   UNL     1      18.116   3.249 -19.222  1.00  0.00     0.001 A 
HETATM   29  C   UNL     1      17.624   2.158 -18.488  1.00  0.00     0.014 A 
BRANCH  22  30
HETATM   30  C   UNL     1      16.447  -3.199 -20.189  1.00  0.00    -0.011 C 
HETATM   31  C   UNL     1      15.180  -2.773 -20.087  1.00  0.00     0.008 C 
BRANCH  31  32
HETATM   32  C   UNL     1      14.113  -3.085 -21.043  1.00  0.00    -0.036 A 
HETATM   33  C   UNL     1      14.439  -3.826 -22.186  1.00  0.00     0.011 A 
HETATM   34  C   UNL     1      13.444  -4.223 -23.080  1.00  0.00     0.001 A 
HETATM   35  C   UNL     1      12.113  -3.894 -22.833  1.00  0.00     0.000 A 
HETATM   36  C   UNL     1      11.774  -3.170 -21.692  1.00  0.00     0.001 A 
HETATM   37  C   UNL     1      12.770  -2.772 -20.797  1.00  0.00     0.011 A 
ENDBRANCH  31  32
ENDBRANCH  22  30
ENDBRANCH  12  14
ENDBRANCH  11  12
ENDBRANCH  10  11
ENDBRANCH   2   4
TORSDOF 6
ENDMDL
MODEL 8
REMARK VINA RESULT:      -7.5      4.938      8.678
REMARK  6 active torsions:
REMARK  status: ('A' for Active; 'I' for Inactive)
REMARK    1  A    between atoms: C_2  and  C_4 
REMARK    2  A    between atoms: C_10  and  O_11 
REMARK    3  A    between atoms: O_11  and  C_12 
REMARK    4  A    between atoms: C_12  and  C_14 
REMARK    5  A    between atoms: C_20  and  C_21 
REMARK    6  A    between atoms: C_22  and  C_23 
ROOT
HETATM    1  C   UNL     1      12.809  -2.540 -19.498  1.00  0.00     0.010 C 
HETATM    2  C   UNL     1      12.565  -3.739 -18.567  1.00  0.00    -0.016 C 
HETATM    3  C   UNL     1      11.480  -4.605 -19.225  1.00  0.00     0.010 C 
ENDROOT
BRANCH   2   4
HETATM    4  C   UNL     1      13.866  -4.553 -18.258  1.00  0.00     0.018 C 
HETATM    5  C   UNL     1      15.049  -3.656 -17.824  1.00  0.00     0.008 C 
HETATM    6  C   UNL     1      14.886  -3.042 -16.436  1.00  0.00     0.005 C 
HETATM    7  C   UNL     1      14.551  -4.067 -15.345  1.00  0.00    -0.016 C 
HETATM    8  C   UNL     1      15.800  -4.787 -14.832  1.00  0.00     0.010 C 
HETATM    9  C   UNL     1      13.461  -5.055 -15.789  1.00  0.00     0.037 C 
HETATM   10  C   UNL     1      13.662  -5.664 -17.183  1.00  0.00     0.137 C 
BRANCH  10  11
HETATM   11  O   UNL     1      14.803  -6.557 -17.235  1.00  0.00    -0.312 OA
BRANCH  11  12
HETATM   12  C   UNL     1      14.610  -7.842 -16.830  1.00  0.00     0.292 C 
HETATM   13  O   UNL     1      14.343  -8.176 -15.685  1.00  0.00    -0.259 OA
BRANCH  12  14
HETATM   14  C   UNL     1      14.635  -8.784 -17.988  1.00  0.00     0.051 C 
HETATM   15  C   UNL     1      15.740  -9.516 -18.328  1.00  0.00     0.019 C 
HETATM   16  C   UNL     1      17.125  -9.347 -17.752  1.00  0.00     0.069 C 
HETATM   17  N   UNL     1      15.633 -10.554 -19.269  1.00  0.00    -0.358 N 
HETATM   18  C   UNL     1      14.412 -11.000 -19.679  1.00  0.00     0.055 A 
HETATM   19  HN  UNL     1      16.428 -11.177 -19.372  1.00  0.00     0.166 HD
HETATM   20  C   UNL     1      13.283 -10.340 -19.401  1.00  0.00     0.033 A 
HETATM   21  C   UNL     1      14.104 -12.204 -20.434  1.00  0.00     0.005 A 
HETATM   22  C   UNL     1      13.278  -9.042 -18.676  1.00  0.00     0.088 C 
HETATM   23  C   UNL     1      12.140 -11.100 -19.920  1.00  0.00     0.192 A 
HETATM   24  O   UNL     1      10.965 -10.833 -19.801  1.00  0.00    -0.287 OA
HETATM   25  C   UNL     1      12.717 -12.267 -20.590  1.00  0.00     0.027 A 
HETATM   26  C   UNL     1      12.072 -13.278 -21.279  1.00  0.00     0.016 A 
HETATM   27  C   UNL     1      12.873 -14.272 -21.837  1.00  0.00     0.001 A 
HETATM   28  C   UNL     1      14.273 -14.232 -21.687  1.00  0.00     0.001 A 
HETATM   29  C   UNL     1      14.900 -13.193 -20.980  1.00  0.00     0.014 A 
BRANCH  22  30
HETATM   30  C   UNL     1      12.976  -7.942 -19.672  1.00  0.00    -0.011 C 
HETATM   31  C   UNL     1      13.889  -7.451 -20.522  1.00  0.00     0.008 C 
BRANCH  31  32
HETATM   32  C   UNL     1      13.621  -6.429 -21.538  1.00  0.00    -0.036 A 
HETATM   33  C   UNL     1      12.449  -6.535 -22.296  1.00  0.00     0.011 A 
HETATM   34  C   UNL     1      12.105  -5.541 -23.213  1.00  0.00     0.001 A 
HETATM   35  C   UNL     1      12.926  -4.426 -23.372  1.00  0.00     0.000 A 
HETATM   36  C   UNL     1      14.087  -4.301 -22.612  1.00  0.00     0.001 A 
HETATM   37  C   UNL     1      14.431  -5.296 -21.695  1.00  0.00     0.011 A 
ENDBRANCH  31  32
ENDBRANCH  22  30
ENDBRANCH  12  14
ENDBRANCH  11  12
ENDBRANCH  10  11
ENDBRANCH   2   4
TORSDOF 6
ENDMDL
MODEL 9
REMARK VINA RESULT:      -7.5      6.136     10.829
REMARK  6 active torsions:
REMARK  status: ('A' for Active; 'I' for Inactive)
REMARK    1  A    between atoms: C_2  and  C_4 
REMARK    2  A    between atoms: C_10  and  O_11 
REMARK    3  A    between atoms: O_11  and  C_12 
REMARK    4  A    between atoms: C_12  and  C_14 
REMARK    5  A    between atoms: C_20  and  C_21 
REMARK    6  A    between atoms: C_22  and  C_23 
ROOT
HETATM    1  C   UNL     1      16.108  -7.094 -21.151  1.00  0.00     0.010 C 
HETATM    2  C   UNL     1      14.982  -7.258 -22.184  1.00  0.00    -0.016 C 
HETATM    3  C   UNL     1      14.756  -8.766 -22.369  1.00  0.00     0.010 C 
ENDROOT
BRANCH   2   4
HETATM    4  C   UNL     1      13.667  -6.506 -21.786  1.00  0.00     0.018 C 
HETATM    5  C   UNL     1      13.889  -4.998 -21.530  1.00  0.00     0.008 C 
HETATM    6  C   UNL     1      14.182  -4.191 -22.792  1.00  0.00     0.005 C 
HETATM    7  C   UNL     1      13.158  -4.409 -23.913  1.00  0.00    -0.016 C 
HETATM    8  C   UNL     1      11.900  -3.558 -23.715  1.00  0.00     0.010 C 
HETATM    9  C   UNL     1      12.819  -5.894 -24.114  1.00  0.00     0.037 C 
HETATM   10  C   UNL     1      12.517  -6.672 -22.826  1.00  0.00     0.137 C 
BRANCH  10  11
HETATM   11  O   UNL     1      11.279  -6.247 -22.202  1.00  0.00    -0.312 OA
BRANCH  11  12
HETATM   12  C   UNL     1      10.205  -7.074 -22.319  1.00  0.00     0.292 C 
HETATM   13  O   UNL     1       9.888  -7.661 -23.343  1.00  0.00    -0.259 OA
BRANCH  12  14
HETATM   14  C   UNL     1       9.534  -7.279 -21.001  1.00  0.00     0.051 C 
HETATM   15  C   UNL     1       8.464  -6.535 -20.586  1.00  0.00     0.019 C 
HETATM   16  C   UNL     1       7.935  -5.293 -21.263  1.00  0.00     0.069 C 
HETATM   17  N   UNL     1       7.731  -6.927 -19.454  1.00  0.00    -0.358 N 
HETATM   18  C   UNL     1       7.918  -8.156 -18.895  1.00  0.00     0.055 A 
HETATM   19  HN  UNL     1       6.853  -6.450 -19.275  1.00  0.00     0.166 HD
HETATM   20  C   UNL     1       8.944  -8.944 -19.233  1.00  0.00     0.033 A 
HETATM   21  C   UNL     1       7.093  -8.824 -17.900  1.00  0.00     0.005 A 
HETATM   22  C   UNL     1       9.990  -8.516 -20.198  1.00  0.00     0.088 C 
HETATM   23  C   UNL     1       8.834 -10.215 -18.509  1.00  0.00     0.192 A 
HETATM   24  O   UNL     1       9.555 -11.183 -18.610  1.00  0.00    -0.287 OA
HETATM   25  C   UNL     1       7.653 -10.080 -17.655  1.00  0.00     0.027 A 
HETATM   26  C   UNL     1       7.133 -10.981 -16.744  1.00  0.00     0.016 A 
HETATM   27  C   UNL     1       5.993 -10.589 -16.047  1.00  0.00     0.001 A 
HETATM   28  C   UNL     1       5.409  -9.328 -16.281  1.00  0.00     0.001 A 
HETATM   29  C   UNL     1       5.957  -8.435 -17.215  1.00  0.00     0.014 A 
BRANCH  22  30
HETATM   30  C   UNL     1      11.253  -8.205 -19.424  1.00  0.00    -0.011 C 
HETATM   31  C   UNL     1      12.313  -9.025 -19.388  1.00  0.00     0.008 C 
BRANCH  31  32
HETATM   32  C   UNL     1      13.574  -8.732 -18.700  1.00  0.00    -0.036 A 
HETATM   33  C   UNL     1      14.606  -9.676 -18.769  1.00  0.00     0.011 A 
HETATM   34  C   UNL     1      15.853  -9.406 -18.205  1.00  0.00     0.001 A 
HETATM   35  C   UNL     1      16.084  -8.183 -17.578  1.00  0.00     0.000 A 
HETATM   36  C   UNL     1      15.070  -7.229 -17.516  1.00  0.00     0.001 A 
HETATM   37  C   UNL     1      13.821  -7.501 -18.080  1.00  0.00     0.011 A 
ENDBRANCH  31  32
ENDBRANCH  22  30
ENDBRANCH  12  14
ENDBRANCH  11  12
ENDBRANCH  10  11
ENDBRANCH   2   4
TORSDOF 6
ENDMDL
