MODEL 1
REMARK VINA RESULT:      -7.2      0.000      0.000
REMARK  9 active torsions:
REMARK  status: ('A' for Active; 'I' for Inactive)
REMARK    1  A    between atoms: C_7  and  C_19 
REMARK    2  A    between atoms: C_9  and  C_10 
REMARK    3  A    between atoms: C_19  and  O_21 
REMARK    4  A    between atoms: O_21  and  C_22 
REMARK    5  A    between atoms: C_22  and  C_23 
REMARK    6  A    between atoms: C_23  and  C_25 
REMARK    7  A    between atoms: C_28  and  O_31 
REMARK    8  A    between atoms: O_31  and  C_32 
REMARK    9  A    between atoms: C_32  and  C_34 
ROOT
HETATM    1  C   UNL     1      12.223  -1.488 -18.496  1.00  0.00     0.001 A 
HETATM    2  C   UNL     1      11.133  -1.777 -19.300  1.00  0.00     0.002 A 
HETATM    3  C   UNL     1      11.328  -2.452 -20.507  1.00  0.00     0.030 A 
HETATM    4  C   UNL     1      12.584  -2.875 -20.924  1.00  0.00     0.043 A 
HETATM    5  C   UNL     1      13.701  -2.612 -20.106  1.00  0.00     0.007 A 
HETATM    6  C   UNL     1      13.495  -1.890 -18.900  1.00  0.00     0.015 A 
HETATM    7  C   UNL     1      14.943  -3.112 -20.568  1.00  0.00     0.054 A 
HETATM    8  C   UNL     1      15.016  -3.818 -21.775  1.00  0.00     0.049 A 
HETATM    9  C   UNL     1      13.861  -4.017 -22.517  1.00  0.00     0.043 A 
HETATM   10  N   UNL     1      12.667  -3.542 -22.089  1.00  0.00    -0.355 N 
HETATM   11  HN  UNL     1      11.829  -3.689 -22.652  1.00  0.00     0.166 HD
ENDROOT
BRANCH   7  12
HETATM   12  C   UNL     1      16.186  -2.981 -19.757  1.00  0.00     0.294 C 
HETATM   13  O   UNL     1      16.836  -1.957 -19.634  1.00  0.00    -0.259 OA
BRANCH  12  14
HETATM   14  O   UNL     1      16.522  -4.180 -19.212  1.00  0.00    -0.310 OA
BRANCH  14  15
HETATM   15  C   UNL     1      15.910  -4.435 -17.946  1.00  0.00     0.263 C 
BRANCH  15  16
HETATM   16  C   UNL     1      15.259  -5.817 -17.843  1.00  0.00     0.183 C 
HETATM   17  O   UNL     1      15.756  -6.725 -17.175  1.00  0.00    -0.290 OA
BRANCH  16  18
HETATM   18  C   UNL     1      13.947  -6.040 -18.532  1.00  0.00     0.012 A 
HETATM   19  C   UNL     1      13.854  -6.712 -19.759  1.00  0.00     0.018 A 
HETATM   20  C   UNL     1      12.616  -6.844 -20.396  1.00  0.00     0.038 A 
HETATM   21  C   UNL     1      11.467  -6.315 -19.809  1.00  0.00     0.079 A 
HETATM   22  C   UNL     1      11.539  -5.650 -18.588  1.00  0.00     0.038 A 
HETATM   23  C   UNL     1      12.779  -5.521 -17.950  1.00  0.00     0.018 A 
BRANCH  21  24
HETATM   24  O   UNL     1      10.290  -6.428 -20.582  1.00  0.00    -0.273 OA
BRANCH  24  25
HETATM   25  C   UNL     1      10.082  -5.761 -21.793  1.00  0.00     0.322 C 
HETATM   26  O   UNL     1      10.782  -5.869 -22.794  1.00  0.00    -0.257 OA
BRANCH  25  27
HETATM   27  C   UNL     1       8.920  -4.908 -21.683  1.00  0.00     0.150 A 
HETATM   28  C   UNL     1       8.591  -3.739 -22.349  1.00  0.00     0.045 A 
HETATM   29  C   UNL     1       7.338  -3.314 -21.843  1.00  0.00     0.027 A 
HETATM   30  C   UNL     1       6.972  -4.246 -20.902  1.00  0.00     0.143 A 
HETATM   31  O   UNL     1       7.919  -5.214 -20.796  1.00  0.00    -0.317 OA
ENDBRANCH  25  27
ENDBRANCH  24  25
ENDBRANCH  21  24
ENDBRANCH  16  18
ENDBRANCH  15  16
ENDBRANCH  14  15
ENDBRANCH  12  14
ENDBRANCH   7  12
BRANCH   9  32
HETATM   32  C   UNL     1      13.832  -4.818 -23.765  1.00  0.00    -0.009 A 
HETATM   33  C   UNL     1      14.439  -6.089 -23.820  1.00  0.00     0.015 A 
HETATM   34  C   UNL     1      14.493  -6.829 -25.008  1.00  0.00     0.024 A 
HETATM   35  C   UNL     1      13.928  -6.312 -26.169  1.00  0.00     0.034 A 
HETATM   36  C   UNL     1      13.292  -5.076 -26.144  1.00  0.00     0.024 A 
HETATM   37 CL   UNL     1      14.022  -7.199 -27.639  1.00  0.00    -0.084 Cl
HETATM   38  C   UNL     1      13.240  -4.341 -24.951  1.00  0.00     0.015 A 
ENDBRANCH   9  32
TORSDOF 9
ENDMDL
MODEL 2
REMARK VINA RESULT:      -7.1      2.644      6.604
REMARK  9 active torsions:
REMARK  status: ('A' for Active; 'I' for Inactive)
REMARK    1  A    between atoms: C_7  and  C_19 
REMARK    2  A    between atoms: C_9  and  C_10 
REMARK    3  A    between atoms: C_19  and  O_21 
REMARK    4  A    between atoms: O_21  and  C_22 
REMARK    5  A    between atoms: C_22  and  C_23 
REMARK    6  A    between atoms: C_23  and  C_25 
REMARK    7  A    between atoms: C_28  and  O_31 
REMARK    8  A    between atoms: O_31  and  C_32 
REMARK    9  A    between atoms: C_32  and  C_34 
ROOT
HETATM    1  C   UNL     1      12.265  -1.456 -18.519  1.00  0.00     0.001 A 
HETATM    2  C   UNL     1      13.203  -2.080 -17.716  1.00  0.00     0.002 A 
HETATM    3  C   UNL     1      13.293  -3.474 -17.717  1.00  0.00     0.030 A 
HETATM    4  C   UNL     1      12.487  -4.266 -18.526  1.00  0.00     0.043 A 
HETATM    5  C   UNL     1      11.544  -3.647 -19.370  1.00  0.00     0.007 A 
HETATM    6  C   UNL     1      11.436  -2.230 -19.329  1.00  0.00     0.015 A 
HETATM    7  C   UNL     1      10.790  -4.510 -20.201  1.00  0.00     0.054 A 
HETATM    8  C   UNL     1      10.995  -5.894 -20.154  1.00  0.00     0.049 A 
HETATM    9  C   UNL     1      11.940  -6.412 -19.281  1.00  0.00     0.043 A 
HETATM   10  N   UNL     1      12.667  -5.598 -18.477  1.00  0.00    -0.355 N 
HETATM   11  HN  UNL     1      13.352  -5.997 -17.834  1.00  0.00     0.166 HD
ENDROOT
BRANCH   7  12
HETATM   12  C   UNL     1       9.824  -3.978 -21.203  1.00  0.00     0.294 C 
HETATM   13  O   UNL     1       8.781  -3.407 -20.933  1.00  0.00    -0.259 OA
BRANCH  12  14
HETATM   14  O   UNL     1      10.245  -4.265 -22.463  1.00  0.00    -0.310 OA
BRANCH  14  15
HETATM   15  C   UNL     1      11.250  -3.377 -22.956  1.00  0.00     0.263 C 
BRANCH  15  16
HETATM   16  C   UNL     1      12.506  -4.087 -23.464  1.00  0.00     0.183 C 
HETATM   17  O   UNL     1      12.668  -4.357 -24.656  1.00  0.00    -0.290 OA
BRANCH  16  18
HETATM   18  C   UNL     1      13.591  -4.406 -22.481  1.00  0.00     0.012 A 
HETATM   19  C   UNL     1      14.255  -3.407 -21.754  1.00  0.00     0.018 A 
HETATM   20  C   UNL     1      15.303  -3.745 -20.892  1.00  0.00     0.038 A 
HETATM   21  C   UNL     1      15.688  -5.077 -20.746  1.00  0.00     0.079 A 
HETATM   22  C   UNL     1      15.037  -6.082 -21.456  1.00  0.00     0.038 A 
HETATM   23  C   UNL     1      13.985  -5.744 -22.316  1.00  0.00     0.018 A 
BRANCH  21  24
HETATM   24  O   UNL     1      16.815  -5.291 -19.921  1.00  0.00    -0.273 OA
BRANCH  24  25
HETATM   25  C   UNL     1      17.245  -6.550 -19.494  1.00  0.00     0.322 C 
HETATM   26  O   UNL     1      17.931  -7.327 -20.149  1.00  0.00    -0.257 OA
BRANCH  25  27
HETATM   27  C   UNL     1      16.744  -6.807 -18.162  1.00  0.00     0.150 A 
HETATM   28  C   UNL     1      16.093  -5.977 -17.266  1.00  0.00     0.045 A 
HETATM   29  C   UNL     1      15.837  -6.744 -16.103  1.00  0.00     0.027 A 
HETATM   30  C   UNL     1      16.342  -7.997 -16.356  1.00  0.00     0.143 A 
HETATM   31  O   UNL     1      16.892  -8.048 -17.596  1.00  0.00    -0.317 OA
ENDBRANCH  25  27
ENDBRANCH  24  25
ENDBRANCH  21  24
ENDBRANCH  16  18
ENDBRANCH  15  16
ENDBRANCH  14  15
ENDBRANCH  12  14
ENDBRANCH   7  12
BRANCH   9  32
HETATM   32  C   UNL     1      12.277  -7.855 -19.220  1.00  0.00    -0.009 A 
HETATM   33  C   UNL     1      13.561  -8.278 -18.821  1.00  0.00     0.015 A 
HETATM   34  C   UNL     1      13.928  -9.631 -18.832  1.00  0.00     0.024 A 
HETATM   35  C   UNL     1      13.007 -10.591 -19.236  1.00  0.00     0.034 A 
HETATM   36  C   UNL     1      11.721 -10.213 -19.605  1.00  0.00     0.024 A 
HETATM   37 CL   UNL     1      13.460 -12.249 -19.286  1.00  0.00    -0.084 Cl
HETATM   38  C   UNL     1      11.360  -8.858 -19.590  1.00  0.00     0.015 A 
ENDBRANCH   9  32
TORSDOF 9
ENDMDL
MODEL 3
REMARK VINA RESULT:      -7.0      3.298      5.827
REMARK  9 active torsions:
REMARK  status: ('A' for Active; 'I' for Inactive)
REMARK    1  A    between atoms: C_7  and  C_19 
REMARK    2  A    between atoms: C_9  and  C_10 
REMARK    3  A    between atoms: C_19  and  O_21 
REMARK    4  A    between atoms: O_21  and  C_22 
REMARK    5  A    between atoms: C_22  and  C_23 
REMARK    6  A    between atoms: C_23  and  C_25 
REMARK    7  A    between atoms: C_28  and  O_31 
REMARK    8  A    between atoms: O_31  and  C_32 
REMARK    9  A    between atoms: C_32  and  C_34 
ROOT
HETATM    1  C   UNL     1      14.322  -8.785 -17.869  1.00  0.00     0.001 A 
HETATM    2  C   UNL     1      14.096  -8.337 -19.159  1.00  0.00     0.002 A 
HETATM    3  C   UNL     1      14.746  -7.188 -19.613  1.00  0.00     0.030 A 
HETATM    4  C   UNL     1      15.645  -6.484 -18.821  1.00  0.00     0.043 A 
HETATM    5  C   UNL     1      15.908  -6.940 -17.514  1.00  0.00     0.007 A 
HETATM    6  C   UNL     1      15.209  -8.088 -17.050  1.00  0.00     0.015 A 
HETATM    7  C   UNL     1      16.868  -6.204 -16.778  1.00  0.00     0.054 A 
HETATM    8  C   UNL     1      17.495  -5.091 -17.351  1.00  0.00     0.049 A 
HETATM    9  C   UNL     1      17.162  -4.712 -18.642  1.00  0.00     0.043 A 
HETATM   10  N   UNL     1      16.242  -5.405 -19.356  1.00  0.00    -0.355 N 
HETATM   11  HN  UNL     1      16.002  -5.107 -20.302  1.00  0.00     0.166 HD
ENDROOT
BRANCH   7  12
HETATM   12  C   UNL     1      17.303  -6.632 -15.419  1.00  0.00     0.294 C 
HETATM   13  O   UNL     1      17.745  -7.734 -15.141  1.00  0.00    -0.259 OA
BRANCH  12  14
HETATM   14  O   UNL     1      17.090  -5.635 -14.520  1.00  0.00    -0.310 OA
BRANCH  14  15
HETATM   15  C   UNL     1      15.814  -5.690 -13.881  1.00  0.00     0.263 C 
BRANCH  15  16
HETATM   16  C   UNL     1      14.903  -4.507 -14.219  1.00  0.00     0.183 C 
HETATM   17  O   UNL     1      14.903  -3.471 -13.552  1.00  0.00    -0.290 OA
BRANCH  16  18
HETATM   18  C   UNL     1      14.035  -4.602 -15.436  1.00  0.00     0.012 A 
HETATM   19  C   UNL     1      13.101  -5.634 -15.608  1.00  0.00     0.018 A 
HETATM   20  C   UNL     1      12.355  -5.718 -16.788  1.00  0.00     0.038 A 
HETATM   21  C   UNL     1      12.529  -4.769 -17.795  1.00  0.00     0.079 A 
HETATM   22  C   UNL     1      13.447  -3.735 -17.640  1.00  0.00     0.038 A 
HETATM   23  C   UNL     1      14.191  -3.650 -16.457  1.00  0.00     0.018 A 
BRANCH  21  24
HETATM   24  O   UNL     1      11.790  -5.004 -18.976  1.00  0.00    -0.273 OA
BRANCH  24  25
HETATM   25  C   UNL     1      11.592  -4.050 -19.978  1.00  0.00     0.322 C 
HETATM   26  O   UNL     1      10.677  -3.235 -20.014  1.00  0.00    -0.257 OA
BRANCH  25  27
HETATM   27  C   UNL     1      12.626  -4.179 -20.981  1.00  0.00     0.150 A 
HETATM   28  C   UNL     1      13.681  -3.342 -21.303  1.00  0.00     0.045 A 
HETATM   29  C   UNL     1      14.380  -3.951 -22.373  1.00  0.00     0.027 A 
HETATM   30  C   UNL     1      13.716  -5.124 -22.641  1.00  0.00     0.143 A 
HETATM   31  O   UNL     1      12.656  -5.274 -21.807  1.00  0.00    -0.317 OA
ENDBRANCH  25  27
ENDBRANCH  24  25
ENDBRANCH  21  24
ENDBRANCH  16  18
ENDBRANCH  15  16
ENDBRANCH  14  15
ENDBRANCH  12  14
ENDBRANCH   7  12
BRANCH   9  32
HETATM   32  C   UNL     1      17.831  -3.596 -19.354  1.00  0.00    -0.009 A 
HETATM   33  C   UNL     1      17.074  -2.589 -19.988  1.00  0.00     0.015 A 
HETATM   34  C   UNL     1      17.682  -1.570 -20.732  1.00  0.00     0.024 A 
HETATM   35  C   UNL     1      19.067  -1.532 -20.849  1.00  0.00     0.034 A 
HETATM   36  C   UNL     1      19.846  -2.490 -20.209  1.00  0.00     0.024 A 
HETATM   37 CL   UNL     1      19.818  -0.305 -21.790  1.00  0.00    -0.084 Cl
HETATM   38  C   UNL     1      19.233  -3.507 -19.464  1.00  0.00     0.015 A 
ENDBRANCH   9  32
TORSDOF 9
ENDMDL
MODEL 4
REMARK VINA RESULT:      -7.0      3.278      5.471
REMARK  9 active torsions:
REMARK  status: ('A' for Active; 'I' for Inactive)
REMARK    1  A    between atoms: C_7  and  C_19 
REMARK    2  A    between atoms: C_9  and  C_10 
REMARK    3  A    between atoms: C_19  and  O_21 
REMARK    4  A    between atoms: O_21  and  C_22 
REMARK    5  A    between atoms: C_22  and  C_23 
REMARK    6  A    between atoms: C_23  and  C_25 
REMARK    7  A    between atoms: C_28  and  O_31 
REMARK    8  A    between atoms: O_31  and  C_32 
REMARK    9  A    between atoms: C_32  and  C_34 
ROOT
HETATM    1  C   UNL     1      14.690  -4.812 -13.299  1.00  0.00     0.001 A 
HETATM    2  C   UNL     1      13.495  -5.153 -13.909  1.00  0.00     0.002 A 
HETATM    3  C   UNL     1      13.388  -5.084 -15.299  1.00  0.00     0.030 A 
HETATM    4  C   UNL     1      14.456  -4.710 -16.107  1.00  0.00     0.043 A 
HETATM    5  C   UNL     1      15.687  -4.385 -15.505  1.00  0.00     0.007 A 
HETATM    6  C   UNL     1      15.771  -4.420 -14.086  1.00  0.00     0.015 A 
HETATM    7  C   UNL     1      16.745  -4.058 -16.387  1.00  0.00     0.054 A 
HETATM    8  C   UNL     1      16.538  -4.066 -17.772  1.00  0.00     0.049 A 
HETATM    9  C   UNL     1      15.285  -4.389 -18.270  1.00  0.00     0.043 A 
HETATM   10  N   UNL     1      14.263  -4.700 -17.437  1.00  0.00    -0.355 N 
HETATM   11  HN  UNL     1      13.345  -4.927 -17.821  1.00  0.00     0.166 HD
ENDROOT
BRANCH   7  12
HETATM   12  C   UNL     1      18.121  -3.782 -15.886  1.00  0.00     0.294 C 
HETATM   13  O   UNL     1      18.867  -4.614 -15.397  1.00  0.00    -0.259 OA
BRANCH  12  14
HETATM   14  O   UNL     1      18.410  -2.459 -16.004  1.00  0.00    -0.310 OA
BRANCH  14  15
HETATM   15  C   UNL     1      18.143  -1.698 -14.825  1.00  0.00     0.263 C 
BRANCH  15  16
HETATM   16  C   UNL     1      17.273  -0.463 -15.071  1.00  0.00     0.183 C 
HETATM   17  O   UNL     1      17.680   0.678 -14.846  1.00  0.00    -0.290 OA
BRANCH  16  18
HETATM   18  C   UNL     1      15.910  -0.659 -15.661  1.00  0.00     0.012 A 
HETATM   19  C   UNL     1      14.792  -0.960 -14.870  1.00  0.00     0.018 A 
HETATM   20  C   UNL     1      13.550  -1.195 -15.469  1.00  0.00     0.038 A 
HETATM   21  C   UNL     1      13.415  -1.120 -16.855  1.00  0.00     0.079 A 
HETATM   22  C   UNL     1      14.513  -0.816 -17.655  1.00  0.00     0.038 A 
HETATM   23  C   UNL     1      15.756  -0.578 -17.054  1.00  0.00     0.018 A 
BRANCH  21  24
HETATM   24  O   UNL     1      12.140  -1.463 -17.356  1.00  0.00    -0.273 OA
BRANCH  24  25
HETATM   25  C   UNL     1      11.683  -1.124 -18.632  1.00  0.00     0.322 C 
HETATM   26  O   UNL     1      11.493   0.016 -19.040  1.00  0.00    -0.257 OA
BRANCH  25  27
HETATM   27  C   UNL     1      11.449  -2.327 -19.399  1.00  0.00     0.150 A 
HETATM   28  C   UNL     1      11.022  -2.498 -20.705  1.00  0.00     0.045 A 
HETATM   29  C   UNL     1      10.957  -3.893 -20.939  1.00  0.00     0.027 A 
HETATM   30  C   UNL     1      11.350  -4.494 -19.768  1.00  0.00     0.143 A 
HETATM   31  O   UNL     1      11.651  -3.560 -18.830  1.00  0.00    -0.317 OA
ENDBRANCH  25  27
ENDBRANCH  24  25
ENDBRANCH  21  24
ENDBRANCH  16  18
ENDBRANCH  15  16
ENDBRANCH  14  15
ENDBRANCH  12  14
ENDBRANCH   7  12
BRANCH   9  32
HETATM   32  C   UNL     1      14.997  -4.498 -19.721  1.00  0.00    -0.009 A 
HETATM   33  C   UNL     1      14.882  -3.343 -20.521  1.00  0.00     0.015 A 
HETATM   34  C   UNL     1      14.532  -3.417 -21.876  1.00  0.00     0.024 A 
HETATM   35  C   UNL     1      14.299  -4.657 -22.461  1.00  0.00     0.034 A 
HETATM   36  C   UNL     1      14.436  -5.818 -21.711  1.00  0.00     0.024 A 
HETATM   37 CL   UNL     1      13.835  -4.753 -24.114  1.00  0.00    -0.084 Cl
HETATM   38  C   UNL     1      14.788  -5.739 -20.356  1.00  0.00     0.015 A 
ENDBRANCH   9  32
TORSDOF 9
ENDMDL
MODEL 5
REMARK VINA RESULT:      -7.0      2.931      7.133
REMARK  9 active torsions:
REMARK  status: ('A' for Active; 'I' for Inactive)
REMARK    1  A    between atoms: C_7  and  C_19 
REMARK    2  A    between atoms: C_9  and  C_10 
REMARK    3  A    between atoms: C_19  and  O_21 
REMARK    4  A    between atoms: O_21  and  C_22 
REMARK    5  A    between atoms: C_22  and  C_23 
REMARK    6  A    between atoms: C_23  and  C_25 
REMARK    7  A    between atoms: C_28  and  O_31 
REMARK    8  A    between atoms: O_31  and  C_32 
REMARK    9  A    between atoms: C_32  and  C_34 
ROOT
HETATM    1  C   UNL     1      11.195  -1.167 -19.605  1.00  0.00     0.001 A 
HETATM    2  C   UNL     1      12.196  -0.835 -18.709  1.00  0.00     0.002 A 
HETATM    3  C   UNL     1      12.948  -1.848 -18.110  1.00  0.00     0.030 A 
HETATM    4  C   UNL     1      12.747  -3.191 -18.405  1.00  0.00     0.043 A 
HETATM    5  C   UNL     1      11.749  -3.547 -19.334  1.00  0.00     0.007 A 
HETATM    6  C   UNL     1      10.965  -2.509 -19.905  1.00  0.00     0.015 A 
HETATM    7  C   UNL     1      11.630  -4.928 -19.622  1.00  0.00     0.054 A 
HETATM    8  C   UNL     1      12.470  -5.855 -18.996  1.00  0.00     0.049 A 
HETATM    9  C   UNL     1      13.416  -5.410 -18.085  1.00  0.00     0.043 A 
HETATM   10  N   UNL     1      13.540  -4.092 -17.797  1.00  0.00    -0.355 N 
HETATM   11  HN  UNL     1      14.235  -3.782 -17.117  1.00  0.00     0.166 HD
ENDROOT
BRANCH   7  12
HETATM   12  C   UNL     1      10.676  -5.429 -20.652  1.00  0.00     0.294 C 
HETATM   13  O   UNL     1       9.470  -5.518 -20.502  1.00  0.00    -0.259 OA
BRANCH  12  14
HETATM   14  O   UNL     1      11.349  -5.820 -21.766  1.00  0.00    -0.310 OA
BRANCH  14  15
HETATM   15  C   UNL     1      11.513  -4.787 -22.739  1.00  0.00     0.263 C 
BRANCH  15  16
HETATM   16  C   UNL     1      12.939  -4.675 -23.285  1.00  0.00     0.183 C 
HETATM   17  O   UNL     1      13.168  -4.509 -24.485  1.00  0.00    -0.290 OA
BRANCH  16  18
HETATM   18  C   UNL     1      14.078  -4.708 -22.313  1.00  0.00     0.012 A 
HETATM   19  C   UNL     1      14.702  -5.906 -21.936  1.00  0.00     0.018 A 
HETATM   20  C   UNL     1      15.722  -5.897 -20.979  1.00  0.00     0.038 A 
HETATM   21  C   UNL     1      16.130  -4.694 -20.402  1.00  0.00     0.079 A 
HETATM   22  C   UNL     1      15.527  -3.495 -20.769  1.00  0.00     0.038 A 
HETATM   23  C   UNL     1      14.508  -3.505 -21.730  1.00  0.00     0.018 A 
BRANCH  21  24
HETATM   24  O   UNL     1      17.102  -4.814 -19.386  1.00  0.00    -0.273 OA
BRANCH  24  25
HETATM   25  C   UNL     1      17.949  -3.777 -18.985  1.00  0.00     0.322 C 
HETATM   26  O   UNL     1      18.872  -3.316 -19.646  1.00  0.00    -0.257 OA
BRANCH  25  27
HETATM   27  C   UNL     1      17.579  -3.336 -17.658  1.00  0.00     0.150 A 
HETATM   28  C   UNL     1      18.228  -3.482 -16.444  1.00  0.00     0.045 A 
HETATM   29  C   UNL     1      17.414  -2.866 -15.463  1.00  0.00     0.027 A 
HETATM   30  C   UNL     1      16.318  -2.376 -16.132  1.00  0.00     0.143 A 
HETATM   31  O   UNL     1      16.406  -2.652 -17.458  1.00  0.00    -0.317 OA
ENDBRANCH  25  27
ENDBRANCH  24  25
ENDBRANCH  21  24
ENDBRANCH  16  18
ENDBRANCH  15  16
ENDBRANCH  14  15
ENDBRANCH  12  14
ENDBRANCH   7  12
BRANCH   9  32
HETATM   32  C   UNL     1      14.397  -6.312 -17.434  1.00  0.00    -0.009 A 
HETATM   33  C   UNL     1      15.217  -5.848 -16.385  1.00  0.00     0.015 A 
HETATM   34  C   UNL     1      16.205  -6.657 -15.809  1.00  0.00     0.024 A 
HETATM   35  C   UNL     1      16.386  -7.957 -16.268  1.00  0.00     0.034 A 
HETATM   36  C   UNL     1      15.573  -8.459 -17.278  1.00  0.00     0.024 A 
HETATM   37 CL   UNL     1      17.620  -8.945 -15.591  1.00  0.00    -0.084 Cl
HETATM   38  C   UNL     1      14.585  -7.645 -17.850  1.00  0.00     0.015 A 
ENDBRANCH   9  32
TORSDOF 9
ENDMDL
MODEL 6
REMARK VINA RESULT:      -7.0      2.978      5.681
REMARK  9 active torsions:
REMARK  status: ('A' for Active; 'I' for Inactive)
REMARK    1  A    between atoms: C_7  and  C_19 
REMARK    2  A    between atoms: C_9  and  C_10 
REMARK    3  A    between atoms: C_19  and  O_21 
REMARK    4  A    between atoms: O_21  and  C_22 
REMARK    5  A    between atoms: C_22  and  C_23 
REMARK    6  A    between atoms: C_23  and  C_25 
REMARK    7  A    between atoms: C_28  and  O_31 
REMARK    8  A    between atoms: O_31  and  C_32 
REMARK    9  A    between atoms: C_32  and  C_34 
ROOT
HETATM    1  C   UNL     1      16.218  -2.379 -14.335  1.00  0.00     0.001 A 
HETATM    2  C   UNL     1      15.429  -3.497 -14.543  1.00  0.00     0.002 A 
HETATM    3  C   UNL     1      14.873  -3.722 -15.805  1.00  0.00     0.030 A 
HETATM    4  C   UNL     1      15.108  -2.872 -16.879  1.00  0.00     0.043 A 
HETATM    5  C   UNL     1      15.929  -1.743 -16.692  1.00  0.00     0.007 A 
HETATM    6  C   UNL     1      16.456  -1.504 -15.393  1.00  0.00     0.015 A 
HETATM    7  C   UNL     1      16.164  -0.946 -17.838  1.00  0.00     0.054 A 
HETATM    8  C   UNL     1      15.591  -1.292 -19.068  1.00  0.00     0.049 A 
HETATM    9  C   UNL     1      14.786  -2.417 -19.151  1.00  0.00     0.043 A 
HETATM   10  N   UNL     1      14.550  -3.187 -18.061  1.00  0.00    -0.355 N 
HETATM   11  HN  UNL     1      13.947  -4.007 -18.138  1.00  0.00     0.166 HD
ENDROOT
BRANCH   7  12
HETATM   12  C   UNL     1      17.086   0.224 -17.798  1.00  0.00     0.294 C 
HETATM   13  O   UNL     1      16.847   1.283 -17.243  1.00  0.00    -0.259 OA
BRANCH  12  14
HETATM   14  O   UNL     1      18.212  -0.038 -18.513  1.00  0.00    -0.310 OA
BRANCH  14  15
HETATM   15  C   UNL     1      19.305  -0.509 -17.723  1.00  0.00     0.263 C 
BRANCH  15  16
HETATM   16  C   UNL     1      19.909  -1.822 -18.227  1.00  0.00     0.183 C 
HETATM   17  O   UNL     1      21.062  -1.888 -18.657  1.00  0.00    -0.290 OA
BRANCH  16  18
HETATM   18  C   UNL     1      19.084  -3.068 -18.133  1.00  0.00     0.012 A 
HETATM   19  C   UNL     1      18.944  -3.782 -16.934  1.00  0.00     0.018 A 
HETATM   20  C   UNL     1      18.214  -4.974 -16.906  1.00  0.00     0.038 A 
HETATM   21  C   UNL     1      17.612  -5.454 -18.069  1.00  0.00     0.079 A 
HETATM   22  C   UNL     1      17.735  -4.756 -19.267  1.00  0.00     0.038 A 
HETATM   23  C   UNL     1      18.464  -3.560 -19.293  1.00  0.00     0.018 A 
BRANCH  21  24
HETATM   24  O   UNL     1      16.978  -6.710 -17.944  1.00  0.00    -0.273 OA
BRANCH  24  25
HETATM   25  C   UNL     1      15.735  -6.902 -17.336  1.00  0.00     0.322 C 
HETATM   26  O   UNL     1      15.556  -7.191 -16.158  1.00  0.00    -0.257 OA
BRANCH  25  27
HETATM   27  C   UNL     1      14.684  -6.722 -18.313  1.00  0.00     0.150 A 
HETATM   28  C   UNL     1      14.648  -7.016 -19.665  1.00  0.00     0.045 A 
HETATM   29  C   UNL     1      13.373  -6.625 -20.140  1.00  0.00     0.027 A 
HETATM   30  C   UNL     1      12.702  -6.118 -19.053  1.00  0.00     0.143 A 
HETATM   31  O   UNL     1      13.483  -6.171 -17.943  1.00  0.00    -0.317 OA
ENDBRANCH  25  27
ENDBRANCH  24  25
ENDBRANCH  21  24
ENDBRANCH  16  18
ENDBRANCH  15  16
ENDBRANCH  14  15
ENDBRANCH  12  14
ENDBRANCH   7  12
BRANCH   9  32
HETATM   32  C   UNL     1      14.203  -2.901 -20.426  1.00  0.00    -0.009 A 
HETATM   33  C   UNL     1      12.816  -2.812 -20.664  1.00  0.00     0.015 A 
HETATM   34  C   UNL     1      12.233  -3.333 -21.826  1.00  0.00     0.024 A 
HETATM   35  C   UNL     1      13.033  -3.948 -22.783  1.00  0.00     0.034 A 
HETATM   36  C   UNL     1      14.408  -4.023 -22.597  1.00  0.00     0.024 A 
HETATM   37 CL   UNL     1      12.320  -4.622 -24.195  1.00  0.00    -0.084 Cl
HETATM   38  C   UNL     1      14.987  -3.499 -21.433  1.00  0.00     0.015 A 
ENDBRANCH   9  32
TORSDOF 9
ENDMDL
MODEL 7
REMARK VINA RESULT:      -7.0      2.945      5.552
REMARK  9 active torsions:
REMARK  status: ('A' for Active; 'I' for Inactive)
REMARK    1  A    between atoms: C_7  and  C_19 
REMARK    2  A    between atoms: C_9  and  C_10 
REMARK    3  A    between atoms: C_19  and  O_21 
REMARK    4  A    between atoms: O_21  and  C_22 
REMARK    5  A    between atoms: C_22  and  C_23 
REMARK    6  A    between atoms: C_23  and  C_25 
REMARK    7  A    between atoms: C_28  and  O_31 
REMARK    8  A    between atoms: O_31  and  C_32 
REMARK    9  A    between atoms: C_32  and  C_34 
ROOT
HETATM    1  C   UNL     1      13.399  -9.511 -18.571  1.00  0.00     0.001 A 
HETATM    2  C   UNL     1      12.317  -9.051 -19.300  1.00  0.00     0.002 A 
HETATM    3  C   UNL     1      12.001  -7.691 -19.280  1.00  0.00     0.030 A 
HETATM    4  C   UNL     1      12.759  -6.766 -18.571  1.00  0.00     0.043 A 
HETATM    5  C   UNL     1      13.879  -7.213 -17.843  1.00  0.00     0.007 A 
HETATM    6  C   UNL     1      14.165  -8.605 -17.840  1.00  0.00     0.015 A 
HETATM    7  C   UNL     1      14.633  -6.213 -17.182  1.00  0.00     0.054 A 
HETATM    8  C   UNL     1      14.251  -4.869 -17.268  1.00  0.00     0.049 A 
HETATM    9  C   UNL     1      13.124  -4.527 -17.999  1.00  0.00     0.043 A 
HETATM   10  N   UNL     1      12.391  -5.474 -18.634  1.00  0.00    -0.355 N 
HETATM   11  HN  UNL     1      11.559  -5.206 -19.161  1.00  0.00     0.166 HD
ENDROOT
BRANCH   7  12
HETATM   12  C   UNL     1      15.890  -6.539 -16.453  1.00  0.00     0.294 C 
HETATM   13  O   UNL     1      16.025  -6.505 -15.242  1.00  0.00    -0.259 OA
BRANCH  12  14
HETATM   14  O   UNL     1      16.883  -6.833 -17.333  1.00  0.00    -0.310 OA
BRANCH  14  15
HETATM   15  C   UNL     1      17.568  -5.687 -17.842  1.00  0.00     0.263 C 
BRANCH  15  16
HETATM   16  C   UNL     1      17.678  -5.660 -19.368  1.00  0.00     0.183 C 
HETATM   17  O   UNL     1      18.634  -6.161 -19.963  1.00  0.00    -0.290 OA
BRANCH  16  18
HETATM   18  C   UNL     1      16.554  -5.057 -20.153  1.00  0.00     0.012 A 
HETATM   19  C   UNL     1      16.324  -3.674 -20.185  1.00  0.00     0.018 A 
HETATM   20  C   UNL     1      15.226  -3.160 -20.881  1.00  0.00     0.038 A 
HETATM   21  C   UNL     1      14.359  -4.019 -21.555  1.00  0.00     0.079 A 
HETATM   22  C   UNL     1      14.574  -5.394 -21.539  1.00  0.00     0.038 A 
HETATM   23  C   UNL     1      15.676  -5.908 -20.844  1.00  0.00     0.018 A 
BRANCH  21  24
HETATM   24  O   UNL     1      13.236  -3.399 -22.147  1.00  0.00    -0.273 OA
BRANCH  24  25
HETATM   25  C   UNL     1      12.353  -4.044 -23.017  1.00  0.00     0.322 C 
HETATM   26  O   UNL     1      12.603  -4.369 -24.172  1.00  0.00    -0.257 OA
BRANCH  25  27
HETATM   27  C   UNL     1      11.087  -4.259 -22.351  1.00  0.00     0.150 A 
HETATM   28  C   UNL     1       9.907  -3.537 -22.400  1.00  0.00     0.045 A 
HETATM   29  C   UNL     1       8.988  -4.190 -21.543  1.00  0.00     0.027 A 
HETATM   30  C   UNL     1       9.656  -5.272 -21.023  1.00  0.00     0.143 A 
HETATM   31  O   UNL     1      10.924  -5.326 -21.504  1.00  0.00    -0.317 OA
ENDBRANCH  25  27
ENDBRANCH  24  25
ENDBRANCH  21  24
ENDBRANCH  16  18
ENDBRANCH  15  16
ENDBRANCH  14  15
ENDBRANCH  12  14
ENDBRANCH   7  12
BRANCH   9  32
HETATM   32  C   UNL     1      12.691  -3.124 -18.207  1.00  0.00    -0.009 A 
HETATM   33  C   UNL     1      13.223  -2.081 -17.421  1.00  0.00     0.015 A 
HETATM   34  C   UNL     1      12.771  -0.761 -17.545  1.00  0.00     0.024 A 
HETATM   35  C   UNL     1      11.781  -0.455 -18.472  1.00  0.00     0.034 A 
HETATM   36  C   UNL     1      11.258  -1.452 -19.287  1.00  0.00     0.024 A 
HETATM   37 CL   UNL     1      11.197   1.157 -18.605  1.00  0.00    -0.084 Cl
HETATM   38  C   UNL     1      11.714  -2.771 -19.160  1.00  0.00     0.015 A 
ENDBRANCH   9  32
TORSDOF 9
ENDMDL
MODEL 8
REMARK VINA RESULT:      -7.0      3.081      5.864
REMARK  9 active torsions:
REMARK  status: ('A' for Active; 'I' for Inactive)
REMARK    1  A    between atoms: C_7  and  C_19 
REMARK    2  A    between atoms: C_9  and  C_10 
REMARK    3  A    between atoms: C_19  and  O_21 
REMARK    4  A    between atoms: O_21  and  C_22 
REMARK    5  A    between atoms: C_22  and  C_23 
REMARK    6  A    between atoms: C_23  and  C_25 
REMARK    7  A    between atoms: C_28  and  O_31 
REMARK    8  A    between atoms: O_31  and  C_32 
REMARK    9  A    between atoms: C_32  and  C_34 
ROOT
HETATM    1  C   UNL     1      17.544  -1.090 -14.863  1.00  0.00     0.001 A 
HETATM    2  C   UNL     1      17.355  -0.441 -16.070  1.00  0.00     0.002 A 
HETATM    3  C   UNL     1      16.367  -0.893 -16.947  1.00  0.00     0.030 A 
HETATM    4  C   UNL     1      15.537  -1.965 -16.639  1.00  0.00     0.043 A 
HETATM    5  C   UNL     1      15.699  -2.622 -15.403  1.00  0.00     0.007 A 
HETATM    6  C   UNL     1      16.734  -2.176 -14.537  1.00  0.00     0.015 A 
HETATM    7  C   UNL     1      14.791  -3.674 -15.133  1.00  0.00     0.054 A 
HETATM    8  C   UNL     1      13.806  -4.014 -16.068  1.00  0.00     0.049 A 
HETATM    9  C   UNL     1      13.733  -3.316 -17.263  1.00  0.00     0.043 A 
HETATM   10  N   UNL     1      14.598  -2.309 -17.537  1.00  0.00    -0.355 N 
HETATM   11  HN  UNL     1      14.535  -1.812 -18.425  1.00  0.00     0.166 HD
ENDROOT
BRANCH   7  12
HETATM   12  C   UNL     1      14.795  -4.390 -13.826  1.00  0.00     0.294 C 
HETATM   13  O   UNL     1      14.442  -3.908 -12.764  1.00  0.00    -0.259 OA
BRANCH  12  14
HETATM   14  O   UNL     1      15.297  -5.644 -13.978  1.00  0.00    -0.310 OA
BRANCH  14  15
HETATM   15  C   UNL     1      16.724  -5.702 -13.993  1.00  0.00     0.263 C 
BRANCH  15  16
HETATM   16  C   UNL     1      17.297  -6.527 -15.147  1.00  0.00     0.183 C 
HETATM   17  O   UNL     1      17.805  -7.635 -14.969  1.00  0.00    -0.290 OA
BRANCH  16  18
HETATM   18  C   UNL     1      17.175  -5.986 -16.539  1.00  0.00     0.012 A 
HETATM   19  C   UNL     1      17.968  -4.925 -16.999  1.00  0.00     0.018 A 
HETATM   20  C   UNL     1      17.777  -4.411 -18.285  1.00  0.00     0.038 A 
HETATM   21  C   UNL     1      16.803  -4.958 -19.121  1.00  0.00     0.079 A 
HETATM   22  C   UNL     1      16.011  -6.015 -18.683  1.00  0.00     0.038 A 
HETATM   23  C   UNL     1      16.205  -6.531 -17.396  1.00  0.00     0.018 A 
BRANCH  21  24
HETATM   24  O   UNL     1      16.638  -4.303 -20.361  1.00  0.00    -0.273 OA
BRANCH  24  25
HETATM   25  C   UNL     1      15.554  -3.478 -20.673  1.00  0.00     0.322 C 
HETATM   26  O   UNL     1      15.368  -2.350 -20.230  1.00  0.00    -0.257 OA
BRANCH  25  27
HETATM   27  C   UNL     1      14.671  -4.165 -21.589  1.00  0.00     0.150 A 
HETATM   28  C   UNL     1      13.696  -3.675 -22.442  1.00  0.00     0.045 A 
HETATM   29  C   UNL     1      13.127  -4.790 -23.104  1.00  0.00     0.027 A 
HETATM   30  C   UNL     1      13.788  -5.895 -22.622  1.00  0.00     0.143 A 
HETATM   31  O   UNL     1      14.722  -5.531 -21.707  1.00  0.00    -0.317 OA
ENDBRANCH  25  27
ENDBRANCH  24  25
ENDBRANCH  21  24
ENDBRANCH  16  18
ENDBRANCH  15  16
ENDBRANCH  14  15
ENDBRANCH  12  14
ENDBRANCH   7  12
BRANCH   9  32
HETATM   32  C   UNL     1      12.676  -3.557 -18.275  1.00  0.00    -0.009 A 
HETATM   33  C   UNL     1      12.351  -4.868 -18.681  1.00  0.00     0.015 A 
HETATM   34  C   UNL     1      11.414  -5.115 -19.692  1.00  0.00     0.024 A 
HETATM   35  C   UNL     1      10.770  -4.050 -20.312  1.00  0.00     0.034 A 
HETATM   36  C   UNL     1      11.041  -2.746 -19.914  1.00  0.00     0.024 A 
HETATM   37 CL   UNL     1       9.644  -4.344 -21.578  1.00  0.00    -0.084 Cl
HETATM   38  C   UNL     1      11.979  -2.504 -18.902  1.00  0.00     0.015 A 
ENDBRANCH   9  32
TORSDOF 9
ENDMDL
MODEL 9
REMARK VINA RESULT:      -6.9      2.598      4.638
REMARK  9 active torsions:
REMARK  status: ('A' for Active; 'I' for Inactive)
REMARK    1  A    between atoms: C_7  and  C_19 
REMARK    2  A    between atoms: C_9  and  C_10 
REMARK    3  A    between atoms: C_19  and  O_21 
REMARK    4  A    between atoms: O_21  and  C_22 
REMARK    5  A    between atoms: C_22  and  C_23 
REMARK    6  A    between atoms: C_23  and  C_25 
REMARK    7  A    between atoms: C_28  and  O_31 
REMARK    8  A    between atoms: O_31  and  C_32 
REMARK    9  A    between atoms: C_32  and  C_34 
ROOT
HETATM    1  C   UNL     1      17.511  -7.617 -15.302  1.00  0.00     0.001 A 
HETATM    2  C   UNL     1      16.857  -8.559 -16.076  1.00  0.00     0.002 A 
HETATM    3  C   UNL     1      16.264  -8.171 -17.280  1.00  0.00     0.030 A 
HETATM    4  C   UNL     1      16.332  -6.865 -17.750  1.00  0.00     0.043 A 
HETATM    5  C   UNL     1      17.016  -5.897 -16.988  1.00  0.00     0.007 A 
HETATM    6  C   UNL     1      17.580  -6.297 -15.746  1.00  0.00     0.015 A 
HETATM    7  C   UNL     1      17.087  -4.599 -17.548  1.00  0.00     0.054 A 
HETATM    8  C   UNL     1      16.495  -4.331 -18.788  1.00  0.00     0.049 A 
HETATM    9  C   UNL     1      15.832  -5.347 -19.459  1.00  0.00     0.043 A 
HETATM   10  N   UNL     1      15.753  -6.594 -18.933  1.00  0.00    -0.355 N 
HETATM   11  HN  UNL     1      15.254  -7.328 -19.437  1.00  0.00     0.166 HD
ENDROOT
BRANCH   7  12
HETATM   12  C   UNL     1      17.857  -3.507 -16.888  1.00  0.00     0.294 C 
HETATM   13  O   UNL     1      19.067  -3.497 -16.739  1.00  0.00    -0.259 OA
BRANCH  12  14
HETATM   14  O   UNL     1      17.013  -2.545 -16.430  1.00  0.00    -0.310 OA
BRANCH  14  15
HETATM   15  C   UNL     1      16.560  -2.758 -15.092  1.00  0.00     0.263 C 
BRANCH  15  16
HETATM   16  C   UNL     1      15.037  -2.751 -14.947  1.00  0.00     0.183 C 
HETATM   17  O   UNL     1      14.459  -2.006 -14.154  1.00  0.00    -0.290 OA
BRANCH  16  18
HETATM   18  C   UNL     1      14.231  -3.638 -15.848  1.00  0.00     0.012 A 
HETATM   19  C   UNL     1      13.682  -3.176 -17.052  1.00  0.00     0.018 A 
HETATM   20  C   UNL     1      12.886  -4.022 -17.831  1.00  0.00     0.038 A 
HETATM   21  C   UNL     1      12.642  -5.332 -17.418  1.00  0.00     0.079 A 
HETATM   22  C   UNL     1      13.185  -5.809 -16.228  1.00  0.00     0.038 A 
HETATM   23  C   UNL     1      13.985  -4.962 -15.450  1.00  0.00     0.018 A 
BRANCH  21  24
HETATM   24  O   UNL     1      11.754  -6.065 -18.235  1.00  0.00    -0.273 OA
BRANCH  24  25
HETATM   25  C   UNL     1      12.148  -6.811 -19.348  1.00  0.00     0.322 C 
HETATM   26  O   UNL     1      12.929  -7.756 -19.331  1.00  0.00    -0.257 OA
BRANCH  25  27
HETATM   27  C   UNL     1      11.506  -6.289 -20.534  1.00  0.00     0.150 A 
HETATM   28  C   UNL     1      10.999  -5.030 -20.807  1.00  0.00     0.045 A 
HETATM   29  C   UNL     1      10.471  -5.073 -22.120  1.00  0.00     0.027 A 
HETATM   30  C   UNL     1      10.688  -6.352 -22.575  1.00  0.00     0.143 A 
HETATM   31  O   UNL     1      11.312  -7.096 -21.627  1.00  0.00    -0.317 OA
ENDBRANCH  25  27
ENDBRANCH  24  25
ENDBRANCH  21  24
ENDBRANCH  16  18
ENDBRANCH  15  16
ENDBRANCH  14  15
ENDBRANCH  12  14
ENDBRANCH   7  12
BRANCH   9  32
HETATM   32  C   UNL     1      15.244  -5.174 -20.810  1.00  0.00    -0.009 A 
HETATM   33  C   UNL     1      14.774  -3.914 -21.235  1.00  0.00     0.015 A 
HETATM   34  C   UNL     1      14.143  -3.743 -22.474  1.00  0.00     0.024 A 
HETATM   35  C   UNL     1      13.979  -4.833 -23.320  1.00  0.00     0.034 A 
HETATM   36  C   UNL     1      14.460  -6.083 -22.948  1.00  0.00     0.024 A 
HETATM   37 CL   UNL     1      13.174  -4.638 -24.827  1.00  0.00    -0.084 Cl
HETATM   38  C   UNL     1      15.091  -6.249 -21.708  1.00  0.00     0.015 A 
ENDBRANCH   9  32
TORSDOF 9
ENDMDL
