MODEL 1
REMARK VINA RESULT:      -8.3      0.000      0.000
REMARK  7 active torsions:
REMARK  status: ('A' for Active; 'I' for Inactive)
REMARK    1  A    between atoms: N_19  and  C_20 
REMARK    2  A    between atoms: C_25  and  C_26 
REMARK    3  A    between atoms: C_26  and  O_28 
REMARK    4  A    between atoms: O_28  and  C_29 
REMARK    5  A    between atoms: C_29  and  C_30 
REMARK    6  A    between atoms: C_30  and  C_32 
REMARK    7  A    between atoms: C_36  and  N_38 
ROOT
HETATM    1  C   UNL     1      13.416  -4.508 -13.585  1.00  0.00     0.001 C 
HETATM    2  C   UNL     1      13.152  -5.541 -14.492  1.00  0.00     0.001 C 
HETATM    3  C   UNL     1      13.306  -5.349 -15.872  1.00  0.00     0.010 C 
HETATM    4  C   UNL     1      13.722  -4.108 -16.349  1.00  0.00    -0.026 C 
HETATM    5  C   UNL     1      13.837  -3.031 -15.418  1.00  0.00    -0.041 C 
HETATM    6  C   UNL     1      13.745  -3.237 -14.044  1.00  0.00     0.008 C 
HETATM    7  C   UNL     1      14.192  -1.690 -16.069  1.00  0.00     0.067 C 
HETATM    8  C   UNL     1      13.186  -1.462 -17.227  1.00  0.00    -0.041 A 
HETATM    9  C   UNL     1      12.394  -0.336 -17.403  1.00  0.00     0.008 A 
HETATM   10  C   UNL     1      11.458  -0.314 -18.448  1.00  0.00     0.001 A 
HETATM   11  C   UNL     1      11.296  -1.419 -19.292  1.00  0.00     0.001 A 
HETATM   12  C   UNL     1      12.090  -2.550 -19.132  1.00  0.00     0.010 A 
HETATM   13  C   UNL     1      13.053  -2.563 -18.124  1.00  0.00    -0.026 A 
HETATM   14  C   UNL     1      14.049  -3.671 -17.807  1.00  0.00     0.086 C 
HETATM   15  C   UNL     1      15.467  -2.984 -17.809  1.00  0.00     0.121 C 
HETATM   16  C   UNL     1      15.598  -2.036 -16.595  1.00  0.00     0.107 C 
HETATM   17  C   UNL     1      16.375  -0.857 -17.082  1.00  0.00     0.237 C 
HETATM   18  O   UNL     1      16.755   0.045 -16.353  1.00  0.00    -0.272 OA
HETATM   19  N   UNL     1      16.497  -0.955 -18.439  1.00  0.00    -0.251 N 
HETATM   20  C   UNL     1      15.790  -2.025 -18.959  1.00  0.00     0.238 C 
HETATM   21  O   UNL     1      15.523  -2.224 -20.136  1.00  0.00    -0.272 OA
HETATM   22 BR   UNL     1      14.059  -5.157 -19.049  1.00  0.00    -0.074 Br
ENDROOT
BRANCH  19  23
HETATM   23  C   UNL     1      17.054   0.104 -19.189  1.00  0.00     0.061 A 
HETATM   24  C   UNL     1      16.347   1.320 -19.277  1.00  0.00     0.031 A 
HETATM   25  C   UNL     1      16.908   2.443 -19.899  1.00  0.00     0.002 A 
HETATM   26  C   UNL     1      18.180   2.365 -20.452  1.00  0.00     0.001 A 
HETATM   27  C   UNL     1      18.897   1.170 -20.374  1.00  0.00     0.020 A 
HETATM   28  C   UNL     1      18.355   0.031 -19.739  1.00  0.00     0.066 A 
BRANCH  28  29
HETATM   29  C   UNL     1      19.244  -1.171 -19.745  1.00  0.00     0.296 C 
HETATM   30  O   UNL     1      19.417  -1.842 -20.754  1.00  0.00    -0.259 OA
BRANCH  29  31
HETATM   31  O   UNL     1      19.689  -1.512 -18.511  1.00  0.00    -0.310 OA
BRANCH  31  32
HETATM   32  C   UNL     1      19.481  -2.894 -18.116  1.00  0.00     0.263 C 
BRANCH  32  33
HETATM   33  C   UNL     1      19.338  -2.983 -16.600  1.00  0.00     0.183 C 
HETATM   34  O   UNL     1      19.928  -2.175 -15.875  1.00  0.00    -0.290 OA
BRANCH  33  35
HETATM   35  C   UNL     1      18.461  -4.014 -15.926  1.00  0.00     0.014 A 
HETATM   36  C   UNL     1      18.048  -3.969 -14.580  1.00  0.00     0.015 A 
HETATM   37  C   UNL     1      17.181  -4.963 -14.074  1.00  0.00     0.003 A 
HETATM   38  C   UNL     1      16.733  -6.010 -14.885  1.00  0.00     0.036 A 
HETATM   39  C   UNL     1      17.160  -6.063 -16.215  1.00  0.00     0.103 A 
HETATM   40  C   UNL     1      18.014  -5.081 -16.726  1.00  0.00     0.051 A 
BRANCH  39  41
HETATM   41  N   UNL     1      16.693  -7.149 -17.090  1.00  0.00    -0.116 N 
HETATM   42  O   UNL     1      15.973  -8.023 -16.592  1.00  0.00    -0.532 OA
HETATM   43  O   UNL     1      17.044  -7.119 -18.279  1.00  0.00    -0.532 OA
ENDBRANCH  39  41
ENDBRANCH  33  35
ENDBRANCH  32  33
ENDBRANCH  31  32
ENDBRANCH  29  31
ENDBRANCH  28  29
ENDBRANCH  19  23
TORSDOF 7
ENDMDL
MODEL 2
REMARK VINA RESULT:      -8.2      3.043      6.306
REMARK  7 active torsions:
REMARK  status: ('A' for Active; 'I' for Inactive)
REMARK    1  A    between atoms: N_19  and  C_20 
REMARK    2  A    between atoms: C_25  and  C_26 
REMARK    3  A    between atoms: C_26  and  O_28 
REMARK    4  A    between atoms: O_28  and  C_29 
REMARK    5  A    between atoms: C_29  and  C_30 
REMARK    6  A    between atoms: C_30  and  C_32 
REMARK    7  A    between atoms: C_36  and  N_38 
ROOT
HETATM    1  C   UNL     1      17.666   0.211 -19.469  1.00  0.00     0.001 C 
HETATM    2  C   UNL     1      16.568   0.627 -18.708  1.00  0.00     0.001 C 
HETATM    3  C   UNL     1      15.497  -0.240 -18.447  1.00  0.00     0.010 C 
HETATM    4  C   UNL     1      15.524  -1.535 -18.961  1.00  0.00    -0.026 C 
HETATM    5  C   UNL     1      16.579  -1.883 -19.858  1.00  0.00    -0.041 C 
HETATM    6  C   UNL     1      17.672  -1.045 -20.065  1.00  0.00     0.008 C 
HETATM    7  C   UNL     1      16.447  -3.292 -20.446  1.00  0.00     0.067 C 
HETATM    8  C   UNL     1      15.015  -3.413 -21.027  1.00  0.00    -0.041 A 
HETATM    9  C   UNL     1      14.695  -3.796 -22.322  1.00  0.00     0.008 A 
HETATM   10  C   UNL     1      13.354  -3.765 -22.735  1.00  0.00     0.001 A 
HETATM   11  C   UNL     1      12.345  -3.331 -21.867  1.00  0.00     0.001 A 
HETATM   12  C   UNL     1      12.651  -2.952 -20.564  1.00  0.00     0.010 A 
HETATM   13  C   UNL     1      13.974  -3.022 -20.133  1.00  0.00    -0.026 A 
HETATM   14  C   UNL     1      14.517  -2.702 -18.745  1.00  0.00     0.086 C 
HETATM   15  C   UNL     1      15.328  -3.976 -18.299  1.00  0.00     0.121 C 
HETATM   16  C   UNL     1      16.609  -4.115 -19.154  1.00  0.00     0.107 C 
HETATM   17  C   UNL     1      16.790  -5.580 -19.381  1.00  0.00     0.237 C 
HETATM   18  O   UNL     1      17.767  -6.059 -19.933  1.00  0.00    -0.272 OA
HETATM   19  N   UNL     1      15.669  -6.223 -18.939  1.00  0.00    -0.251 N 
HETATM   20  C   UNL     1      14.680  -5.346 -18.527  1.00  0.00     0.238 C 
HETATM   21  O   UNL     1      13.507  -5.614 -18.309  1.00  0.00    -0.272 OA
HETATM   22 BR   UNL     1      13.178  -2.297 -17.406  1.00  0.00    -0.074 Br
ENDROOT
BRANCH  19  23
HETATM   23  C   UNL     1      15.495  -7.606 -19.170  1.00  0.00     0.061 A 
HETATM   24  C   UNL     1      15.272  -8.052 -20.488  1.00  0.00     0.031 A 
HETATM   25  C   UNL     1      15.220  -9.418 -20.792  1.00  0.00     0.002 A 
HETATM   26  C   UNL     1      15.380 -10.360 -19.783  1.00  0.00     0.001 A 
HETATM   27  C   UNL     1      15.604  -9.937 -18.472  1.00  0.00     0.020 A 
HETATM   28  C   UNL     1      15.674  -8.566 -18.146  1.00  0.00     0.066 A 
BRANCH  28  29
HETATM   29  C   UNL     1      15.911  -8.277 -16.698  1.00  0.00     0.296 C 
HETATM   30  O   UNL     1      15.000  -8.280 -15.881  1.00  0.00    -0.259 OA
BRANCH  29  31
HETATM   31  O   UNL     1      17.177  -7.870 -16.436  1.00  0.00    -0.310 OA
BRANCH  31  32
HETATM   32  C   UNL     1      17.360  -7.095 -15.221  1.00  0.00     0.263 C 
BRANCH  32  33
HETATM   33  C   UNL     1      17.512  -5.618 -15.567  1.00  0.00     0.183 C 
HETATM   34  O   UNL     1      18.415  -5.252 -16.327  1.00  0.00    -0.290 OA
BRANCH  33  35
HETATM   35  C   UNL     1      16.570  -4.558 -15.040  1.00  0.00     0.014 A 
HETATM   36  C   UNL     1      16.867  -3.184 -14.953  1.00  0.00     0.015 A 
HETATM   37  C   UNL     1      15.885  -2.279 -14.493  1.00  0.00     0.003 A 
HETATM   38  C   UNL     1      14.618  -2.723 -14.105  1.00  0.00     0.036 A 
HETATM   39  C   UNL     1      14.333  -4.090 -14.175  1.00  0.00     0.103 A 
HETATM   40  C   UNL     1      15.297  -4.994 -14.633  1.00  0.00     0.051 A 
BRANCH  39  41
HETATM   41  N   UNL     1      13.004  -4.581 -13.782  1.00  0.00    -0.116 N 
HETATM   42  O   UNL     1      12.490  -4.104 -12.763  1.00  0.00    -0.532 OA
HETATM   43  O   UNL     1      12.473  -5.440 -14.502  1.00  0.00    -0.532 OA
ENDBRANCH  39  41
ENDBRANCH  33  35
ENDBRANCH  32  33
ENDBRANCH  31  32
ENDBRANCH  29  31
ENDBRANCH  28  29
ENDBRANCH  19  23
TORSDOF 7
ENDMDL
MODEL 3
REMARK VINA RESULT:      -8.0      1.273      1.742
REMARK  7 active torsions:
REMARK  status: ('A' for Active; 'I' for Inactive)
REMARK    1  A    between atoms: N_19  and  C_20 
REMARK    2  A    between atoms: C_25  and  C_26 
REMARK    3  A    between atoms: C_26  and  O_28 
REMARK    4  A    between atoms: O_28  and  C_29 
REMARK    5  A    between atoms: C_29  and  C_30 
REMARK    6  A    between atoms: C_30  and  C_32 
REMARK    7  A    between atoms: C_36  and  N_38 
ROOT
HETATM    1  C   UNL     1      13.920  -4.115 -13.171  1.00  0.00     0.001 C 
HETATM    2  C   UNL     1      13.956  -5.195 -14.060  1.00  0.00     0.001 C 
HETATM    3  C   UNL     1      14.152  -4.996 -15.434  1.00  0.00     0.010 C 
HETATM    4  C   UNL     1      14.306  -3.701 -15.923  1.00  0.00    -0.026 C 
HETATM    5  C   UNL     1      14.113  -2.611 -15.021  1.00  0.00    -0.041 C 
HETATM    6  C   UNL     1      13.982  -2.810 -13.649  1.00  0.00     0.008 C 
HETATM    7  C   UNL     1      14.197  -1.235 -15.690  1.00  0.00     0.067 C 
HETATM    8  C   UNL     1      13.243  -1.262 -16.912  1.00  0.00    -0.041 A 
HETATM    9  C   UNL     1      12.230  -0.349 -17.170  1.00  0.00     0.008 A 
HETATM   10  C   UNL     1      11.382  -0.558 -18.268  1.00  0.00     0.001 A 
HETATM   11  C   UNL     1      11.530  -1.684 -19.086  1.00  0.00     0.001 A 
HETATM   12  C   UNL     1      12.547  -2.602 -18.844  1.00  0.00     0.010 A 
HETATM   13  C   UNL     1      13.421  -2.379 -17.782  1.00  0.00    -0.026 A 
HETATM   14  C   UNL     1      14.619  -3.225 -17.372  1.00  0.00     0.086 C 
HETATM   15  C   UNL     1      15.842  -2.234 -17.311  1.00  0.00     0.121 C 
HETATM   16  C   UNL     1      15.676  -1.260 -16.121  1.00  0.00     0.107 C 
HETATM   17  C   UNL     1      16.196   0.056 -16.597  1.00  0.00     0.237 C 
HETATM   18  O   UNL     1      16.314   1.033 -15.875  1.00  0.00    -0.272 OA
HETATM   19  N   UNL     1      16.424  -0.034 -17.941  1.00  0.00    -0.251 N 
HETATM   20  C   UNL     1      16.014  -1.245 -18.469  1.00  0.00     0.238 C 
HETATM   21  O   UNL     1      15.875  -1.519 -19.653  1.00  0.00    -0.272 OA
HETATM   22 BR   UNL     1      15.045  -4.690 -18.565  1.00  0.00    -0.074 Br
ENDROOT
BRANCH  19  23
HETATM   23  C   UNL     1      16.775   1.112 -18.689  1.00  0.00     0.061 A 
HETATM   24  C   UNL     1      15.762   2.023 -19.049  1.00  0.00     0.031 A 
HETATM   25  C   UNL     1      16.069   3.236 -19.679  1.00  0.00     0.002 A 
HETATM   26  C   UNL     1      17.390   3.553 -19.968  1.00  0.00     0.001 A 
HETATM   27  C   UNL     1      18.408   2.663 -19.617  1.00  0.00     0.020 A 
HETATM   28  C   UNL     1      18.121   1.442 -18.969  1.00  0.00     0.066 A 
BRANCH  28  29
HETATM   29  C   UNL     1      19.318   0.598 -18.667  1.00  0.00     0.296 C 
HETATM   30  O   UNL     1      20.128   0.910 -17.804  1.00  0.00    -0.259 OA
BRANCH  29  31
HETATM   31  O   UNL     1      19.480  -0.429 -19.537  1.00  0.00    -0.310 OA
BRANCH  31  32
HETATM   32  C   UNL     1      20.330  -1.518 -19.088  1.00  0.00     0.263 C 
BRANCH  32  33
HETATM   33  C   UNL     1      19.471  -2.712 -18.687  1.00  0.00     0.183 C 
HETATM   34  O   UNL     1      19.025  -3.471 -19.554  1.00  0.00    -0.290 OA
BRANCH  33  35
HETATM   35  C   UNL     1      19.159  -3.041 -17.244  1.00  0.00     0.014 A 
HETATM   36  C   UNL     1      19.391  -2.184 -16.151  1.00  0.00     0.015 A 
HETATM   37  C   UNL     1      19.007  -2.579 -14.851  1.00  0.00     0.003 A 
HETATM   38  C   UNL     1      18.407  -3.821 -14.621  1.00  0.00     0.036 A 
HETATM   39  C   UNL     1      18.195  -4.677 -15.705  1.00  0.00     0.103 A 
HETATM   40  C   UNL     1      18.568  -4.293 -16.997  1.00  0.00     0.051 A 
BRANCH  39  41
HETATM   41  N   UNL     1      17.557  -5.984 -15.491  1.00  0.00    -0.116 N 
HETATM   42  O   UNL     1      17.289  -6.666 -16.488  1.00  0.00    -0.532 OA
HETATM   43  O   UNL     1      17.331  -6.330 -14.322  1.00  0.00    -0.532 OA
ENDBRANCH  39  41
ENDBRANCH  33  35
ENDBRANCH  32  33
ENDBRANCH  31  32
ENDBRANCH  29  31
ENDBRANCH  28  29
ENDBRANCH  19  23
TORSDOF 7
ENDMDL
MODEL 4
REMARK VINA RESULT:      -8.0      1.873      2.330
REMARK  7 active torsions:
REMARK  status: ('A' for Active; 'I' for Inactive)
REMARK    1  A    between atoms: N_19  and  C_20 
REMARK    2  A    between atoms: C_25  and  C_26 
REMARK    3  A    between atoms: C_26  and  O_28 
REMARK    4  A    between atoms: O_28  and  C_29 
REMARK    5  A    between atoms: C_29  and  C_30 
REMARK    6  A    between atoms: C_30  and  C_32 
REMARK    7  A    between atoms: C_36  and  N_38 
ROOT
HETATM    1  C   UNL     1      13.750  -5.837 -14.534  1.00  0.00     0.001 C 
HETATM    2  C   UNL     1      13.855  -6.399 -15.812  1.00  0.00     0.001 C 
HETATM    3  C   UNL     1      14.128  -5.602 -16.933  1.00  0.00     0.010 C 
HETATM    4  C   UNL     1      14.290  -4.228 -16.773  1.00  0.00    -0.026 C 
HETATM    5  C   UNL     1      14.027  -3.662 -15.489  1.00  0.00    -0.041 C 
HETATM    6  C   UNL     1      13.819  -4.458 -14.366  1.00  0.00     0.008 C 
HETATM    7  C   UNL     1      14.128  -2.133 -15.457  1.00  0.00     0.067 C 
HETATM    8  C   UNL     1      13.247  -1.592 -16.614  1.00  0.00    -0.041 A 
HETATM    9  C   UNL     1      12.237  -0.649 -16.490  1.00  0.00     0.008 A 
HETATM   10  C   UNL     1      11.458  -0.329 -17.612  1.00  0.00     0.001 A 
HETATM   11  C   UNL     1      11.671  -0.964 -18.841  1.00  0.00     0.001 A 
HETATM   12  C   UNL     1      12.687  -1.905 -18.981  1.00  0.00     0.010 A 
HETATM   13  C   UNL     1      13.494  -2.197 -17.882  1.00  0.00    -0.026 A 
HETATM   14  C   UNL     1      14.679  -3.152 -17.829  1.00  0.00     0.086 C 
HETATM   15  C   UNL     1      15.880  -2.310 -17.254  1.00  0.00     0.121 C 
HETATM   16  C   UNL     1      15.630  -1.979 -15.765  1.00  0.00     0.107 C 
HETATM   17  C   UNL     1      16.156  -0.595 -15.562  1.00  0.00     0.237 C 
HETATM   18  O   UNL     1      16.215  -0.052 -14.471  1.00  0.00    -0.272 OA
HETATM   19  N   UNL     1      16.464  -0.071 -16.785  1.00  0.00    -0.251 N 
HETATM   20  C   UNL     1      16.103  -0.907 -17.828  1.00  0.00     0.238 C 
HETATM   21  O   UNL     1      16.039  -0.614 -19.013  1.00  0.00    -0.272 OA
HETATM   22 BR   UNL     1      15.198  -3.924 -19.528  1.00  0.00    -0.074 Br
ENDROOT
BRANCH  19  23
HETATM   23  C   UNL     1      16.839   1.285 -16.912  1.00  0.00     0.061 A 
HETATM   24  C   UNL     1      15.835   2.274 -16.873  1.00  0.00     0.031 A 
HETATM   25  C   UNL     1      16.159   3.637 -16.866  1.00  0.00     0.002 A 
HETATM   26  C   UNL     1      17.491   4.032 -16.910  1.00  0.00     0.001 A 
HETATM   27  C   UNL     1      18.499   3.067 -16.947  1.00  0.00     0.020 A 
HETATM   28  C   UNL     1      18.194   1.690 -16.940  1.00  0.00     0.066 A 
BRANCH  28  29
HETATM   29  C   UNL     1      19.383   0.785 -16.991  1.00  0.00     0.296 C 
HETATM   30  O   UNL     1      19.806   0.332 -18.047  1.00  0.00    -0.259 OA
BRANCH  29  31
HETATM   31  O   UNL     1      19.821   0.409 -15.765  1.00  0.00    -0.310 OA
BRANCH  31  32
HETATM   32  C   UNL     1      20.728  -0.725 -15.730  1.00  0.00     0.263 C 
BRANCH  32  33
HETATM   33  C   UNL     1      20.051  -1.907 -15.044  1.00  0.00     0.183 C 
HETATM   34  O   UNL     1      20.038  -1.981 -13.811  1.00  0.00    -0.290 OA
BRANCH  33  35
HETATM   35  C   UNL     1      19.349  -3.002 -15.816  1.00  0.00     0.014 A 
HETATM   36  C   UNL     1      19.327  -3.115 -17.219  1.00  0.00     0.015 A 
HETATM   37  C   UNL     1      18.682  -4.215 -17.828  1.00  0.00     0.003 A 
HETATM   38  C   UNL     1      18.047  -5.196 -17.060  1.00  0.00     0.036 A 
HETATM   39  C   UNL     1      18.055  -5.070 -15.668  1.00  0.00     0.103 A 
HETATM   40  C   UNL     1      18.694  -3.987 -15.055  1.00  0.00     0.051 A 
BRANCH  39  41
HETATM   41  N   UNL     1      17.403  -6.094 -14.837  1.00  0.00    -0.116 N 
HETATM   42  O   UNL     1      17.183  -7.198 -15.349  1.00  0.00    -0.532 OA
HETATM   43  O   UNL     1      17.119  -5.791 -13.669  1.00  0.00    -0.532 OA
ENDBRANCH  39  41
ENDBRANCH  33  35
ENDBRANCH  32  33
ENDBRANCH  31  32
ENDBRANCH  29  31
ENDBRANCH  28  29
ENDBRANCH  19  23
TORSDOF 7
ENDMDL
MODEL 5
REMARK VINA RESULT:      -8.0      2.709      6.561
REMARK  7 active torsions:
REMARK  status: ('A' for Active; 'I' for Inactive)
REMARK    1  A    between atoms: N_19  and  C_20 
REMARK    2  A    between atoms: C_25  and  C_26 
REMARK    3  A    between atoms: C_26  and  O_28 
REMARK    4  A    between atoms: O_28  and  C_29 
REMARK    5  A    between atoms: C_29  and  C_30 
REMARK    6  A    between atoms: C_30  and  C_32 
REMARK    7  A    between atoms: C_36  and  N_38 
ROOT
HETATM    1  C   UNL     1      18.165  -0.415 -20.065  1.00  0.00     0.001 C 
HETATM    2  C   UNL     1      17.254   0.332 -19.310  1.00  0.00     0.001 C 
HETATM    3  C   UNL     1      16.041  -0.226 -18.879  1.00  0.00     0.010 C 
HETATM    4  C   UNL     1      15.737  -1.543 -19.215  1.00  0.00    -0.026 C 
HETATM    5  C   UNL     1      16.610  -2.231 -20.111  1.00  0.00    -0.041 C 
HETATM    6  C   UNL     1      17.842  -1.700 -20.486  1.00  0.00     0.008 C 
HETATM    7  C   UNL     1      16.119  -3.631 -20.497  1.00  0.00     0.067 C 
HETATM    8  C   UNL     1      14.653  -3.484 -20.981  1.00  0.00    -0.041 A 
HETATM    9  C   UNL     1      14.151  -3.934 -22.194  1.00  0.00     0.008 A 
HETATM   10  C   UNL     1      12.822  -3.642 -22.535  1.00  0.00     0.001 A 
HETATM   11  C   UNL     1      12.010  -2.886 -21.683  1.00  0.00     0.001 A 
HETATM   12  C   UNL     1      12.498  -2.436 -20.460  1.00  0.00     0.010 A 
HETATM   13  C   UNL     1      13.804  -2.759 -20.093  1.00  0.00    -0.026 A 
HETATM   14  C   UNL     1      14.515  -2.411 -18.792  1.00  0.00     0.086 C 
HETATM   15  C   UNL     1      15.055  -3.777 -18.222  1.00  0.00     0.121 C 
HETATM   16  C   UNL     1      16.199  -4.309 -19.116  1.00  0.00     0.107 C 
HETATM   17  C   UNL     1      16.028  -5.793 -19.153  1.00  0.00     0.237 C 
HETATM   18  O   UNL     1      16.826  -6.547 -19.687  1.00  0.00    -0.272 OA
HETATM   19  N   UNL     1      14.832  -6.101 -18.571  1.00  0.00    -0.251 N 
HETATM   20  C   UNL     1      14.102  -4.976 -18.229  1.00  0.00     0.238 C 
HETATM   21  O   UNL     1      12.920  -4.937 -17.916  1.00  0.00    -0.272 OA
HETATM   22 BR   UNL     1      13.415  -1.551 -17.450  1.00  0.00    -0.074 Br
ENDROOT
BRANCH  19  23
HETATM   23  C   UNL     1      14.336  -7.424 -18.604  1.00  0.00     0.061 A 
HETATM   24  C   UNL     1      13.910  -7.958 -19.837  1.00  0.00     0.031 A 
HETATM   25  C   UNL     1      13.529  -9.301 -19.952  1.00  0.00     0.002 A 
HETATM   26  C   UNL     1      13.559 -10.128 -18.836  1.00  0.00     0.001 A 
HETATM   27  C   UNL     1      13.980  -9.617 -17.607  1.00  0.00     0.020 A 
HETATM   28  C   UNL     1      14.381  -8.271 -17.473  1.00  0.00     0.066 A 
BRANCH  28  29
HETATM   29  C   UNL     1      14.798  -7.876 -16.092  1.00  0.00     0.296 C 
HETATM   30  O   UNL     1      14.090  -7.177 -15.378  1.00  0.00    -0.259 OA
BRANCH  29  31
HETATM   31  O   UNL     1      16.071  -8.234 -15.795  1.00  0.00    -0.310 OA
BRANCH  31  32
HETATM   32  C   UNL     1      17.114  -7.355 -16.295  1.00  0.00     0.263 C 
BRANCH  32  33
HETATM   33  C   UNL     1      17.339  -6.210 -15.314  1.00  0.00     0.183 C 
HETATM   34  O   UNL     1      17.240  -6.409 -14.098  1.00  0.00    -0.290 OA
BRANCH  33  35
HETATM   35  C   UNL     1      17.721  -4.817 -15.764  1.00  0.00     0.014 A 
HETATM   36  C   UNL     1      18.746  -4.517 -16.682  1.00  0.00     0.015 A 
HETATM   37  C   UNL     1      18.976  -3.178 -17.069  1.00  0.00     0.003 A 
HETATM   38  C   UNL     1      18.209  -2.133 -16.545  1.00  0.00     0.036 A 
HETATM   39  C   UNL     1      17.205  -2.432 -15.620  1.00  0.00     0.103 A 
HETATM   40  C   UNL     1      16.967  -3.755 -15.233  1.00  0.00     0.051 A 
BRANCH  39  41
HETATM   41  N   UNL     1      16.378  -1.352 -15.062  1.00  0.00    -0.116 N 
HETATM   42  O   UNL     1      16.620  -0.194 -15.425  1.00  0.00    -0.532 OA
HETATM   43  O   UNL     1      15.481  -1.667 -14.266  1.00  0.00    -0.532 OA
ENDBRANCH  39  41
ENDBRANCH  33  35
ENDBRANCH  32  33
ENDBRANCH  31  32
ENDBRANCH  29  31
ENDBRANCH  28  29
ENDBRANCH  19  23
TORSDOF 7
ENDMDL
MODEL 6
REMARK VINA RESULT:      -8.0      3.001      5.282
REMARK  7 active torsions:
REMARK  status: ('A' for Active; 'I' for Inactive)
REMARK    1  A    between atoms: N_19  and  C_20 
REMARK    2  A    between atoms: C_25  and  C_26 
REMARK    3  A    between atoms: C_26  and  O_28 
REMARK    4  A    between atoms: O_28  and  C_29 
REMARK    5  A    between atoms: C_29  and  C_30 
REMARK    6  A    between atoms: C_30  and  C_32 
REMARK    7  A    between atoms: C_36  and  N_38 
ROOT
HETATM    1  C   UNL     1       7.505  -4.131 -21.475  1.00  0.00     0.001 C 
HETATM    2  C   UNL     1       7.591  -5.485 -21.130  1.00  0.00     0.001 C 
HETATM    3  C   UNL     1       8.790  -6.036 -20.654  1.00  0.00     0.010 C 
HETATM    4  C   UNL     1       9.914  -5.223 -20.528  1.00  0.00    -0.026 C 
HETATM    5  C   UNL     1       9.842  -3.888 -21.029  1.00  0.00    -0.041 C 
HETATM    6  C   UNL     1       8.637  -3.325 -21.442  1.00  0.00     0.008 C 
HETATM    7  C   UNL     1      11.167  -3.124 -20.940  1.00  0.00     0.067 C 
HETATM    8  C   UNL     1      12.256  -4.018 -21.589  1.00  0.00    -0.041 A 
HETATM    9  C   UNL     1      13.117  -3.636 -22.607  1.00  0.00     0.008 A 
HETATM   10  C   UNL     1      13.987  -4.587 -23.161  1.00  0.00     0.001 A 
HETATM   11  C   UNL     1      13.976  -5.915 -22.719  1.00  0.00     0.001 A 
HETATM   12  C   UNL     1      13.123  -6.309 -21.694  1.00  0.00     0.010 A 
HETATM   13  C   UNL     1      12.288  -5.361 -21.107  1.00  0.00    -0.026 A 
HETATM   14  C   UNL     1      11.318  -5.566 -19.950  1.00  0.00     0.086 C 
HETATM   15  C   UNL     1      11.691  -4.471 -18.880  1.00  0.00     0.121 C 
HETATM   16  C   UNL     1      11.316  -3.067 -19.407  1.00  0.00     0.107 C 
HETATM   17  C   UNL     1      12.397  -2.152 -18.932  1.00  0.00     0.237 C 
HETATM   18  O   UNL     1      12.366  -0.941 -19.080  1.00  0.00    -0.272 OA
HETATM   19  N   UNL     1      13.399  -2.913 -18.401  1.00  0.00    -0.251 N 
HETATM   20  C   UNL     1      13.175  -4.270 -18.557  1.00  0.00     0.238 C 
HETATM   21  O   UNL     1      13.988  -5.170 -18.398  1.00  0.00    -0.272 OA
HETATM   22 BR   UNL     1      11.379  -7.315 -19.119  1.00  0.00    -0.074 Br
ENDROOT
BRANCH  19  23
HETATM   23  C   UNL     1      14.622  -2.322 -18.012  1.00  0.00     0.061 A 
HETATM   24  C   UNL     1      15.658  -2.218 -18.962  1.00  0.00     0.031 A 
HETATM   25  C   UNL     1      16.842  -1.529 -18.670  1.00  0.00     0.002 A 
HETATM   26  C   UNL     1      17.014  -0.943 -17.422  1.00  0.00     0.001 A 
HETATM   27  C   UNL     1      15.998  -1.035 -16.469  1.00  0.00     0.020 A 
HETATM   28  C   UNL     1      14.792  -1.712 -16.748  1.00  0.00     0.066 A 
BRANCH  28  29
HETATM   29  C   UNL     1      13.808  -1.728 -15.622  1.00  0.00     0.296 C 
HETATM   30  O   UNL     1      12.779  -1.064 -15.653  1.00  0.00    -0.259 OA
BRANCH  29  31
HETATM   31  O   UNL     1      14.248  -2.409 -14.537  1.00  0.00    -0.310 OA
BRANCH  31  32
HETATM   32  C   UNL     1      14.098  -3.853 -14.585  1.00  0.00     0.263 C 
BRANCH  32  33
HETATM   33  C   UNL     1      15.421  -4.523 -14.231  1.00  0.00     0.183 C 
HETATM   34  O   UNL     1      15.482  -5.303 -13.274  1.00  0.00    -0.290 OA
BRANCH  33  35
HETATM   35  C   UNL     1      16.684  -4.301 -15.032  1.00  0.00     0.014 A 
HETATM   36  C   UNL     1      17.826  -3.619 -14.569  1.00  0.00     0.015 A 
HETATM   37  C   UNL     1      18.971  -3.521 -15.390  1.00  0.00     0.003 A 
HETATM   38  C   UNL     1      18.990  -4.080 -16.672  1.00  0.00     0.036 A 
HETATM   39  C   UNL     1      17.848  -4.739 -17.136  1.00  0.00     0.103 A 
HETATM   40  C   UNL     1      16.712  -4.845 -16.328  1.00  0.00     0.051 A 
BRANCH  39  41
HETATM   41  N   UNL     1      17.847  -5.344 -18.476  1.00  0.00    -0.116 N 
HETATM   42  O   UNL     1      17.287  -6.438 -18.615  1.00  0.00    -0.532 OA
HETATM   43  O   UNL     1      18.401  -4.716 -19.391  1.00  0.00    -0.532 OA
ENDBRANCH  39  41
ENDBRANCH  33  35
ENDBRANCH  32  33
ENDBRANCH  31  32
ENDBRANCH  29  31
ENDBRANCH  28  29
ENDBRANCH  19  23
TORSDOF 7
ENDMDL
MODEL 7
REMARK VINA RESULT:      -7.9      5.317      9.136
REMARK  7 active torsions:
REMARK  status: ('A' for Active; 'I' for Inactive)
REMARK    1  A    between atoms: N_19  and  C_20 
REMARK    2  A    between atoms: C_25  and  C_26 
REMARK    3  A    between atoms: C_26  and  O_28 
REMARK    4  A    between atoms: O_28  and  C_29 
REMARK    5  A    between atoms: C_29  and  C_30 
REMARK    6  A    between atoms: C_30  and  C_32 
REMARK    7  A    between atoms: C_36  and  N_38 
ROOT
HETATM    1  C   UNL     1      17.379  -5.742 -18.815  1.00  0.00     0.001 C 
HETATM    2  C   UNL     1      17.691  -6.131 -20.123  1.00  0.00     0.001 C 
HETATM    3  C   UNL     1      16.760  -6.820 -20.914  1.00  0.00     0.010 C 
HETATM    4  C   UNL     1      15.508  -7.127 -20.387  1.00  0.00    -0.026 C 
HETATM    5  C   UNL     1      15.272  -6.856 -19.005  1.00  0.00    -0.041 C 
HETATM    6  C   UNL     1      16.170  -6.117 -18.240  1.00  0.00     0.008 C 
HETATM    7  C   UNL     1      13.904  -7.336 -18.508  1.00  0.00     0.067 C 
HETATM    8  C   UNL     1      13.761  -8.822 -18.926  1.00  0.00    -0.041 A 
HETATM    9  C   UNL     1      13.457  -9.877 -18.077  1.00  0.00     0.008 A 
HETATM   10  C   UNL     1      13.457 -11.186 -18.583  1.00  0.00     0.001 A 
HETATM   11  C   UNL     1      13.783 -11.439 -19.921  1.00  0.00     0.001 A 
HETATM   12  C   UNL     1      14.081 -10.390 -20.785  1.00  0.00     0.010 A 
HETATM   13  C   UNL     1      14.040  -9.083 -20.301  1.00  0.00    -0.026 A 
HETATM   14  C   UNL     1      14.284  -7.797 -21.079  1.00  0.00     0.086 C 
HETATM   15  C   UNL     1      13.019  -6.895 -20.822  1.00  0.00     0.121 C 
HETATM   16  C   UNL     1      12.999  -6.417 -19.351  1.00  0.00     0.107 C 
HETATM   17  C   UNL     1      11.563  -6.429 -18.940  1.00  0.00     0.237 C 
HETATM   18  O   UNL     1      11.169  -6.006 -17.864  1.00  0.00    -0.272 OA
HETATM   19  N   UNL     1      10.841  -7.043 -19.923  1.00  0.00    -0.251 N 
HETATM   20  C   UNL     1      11.641  -7.557 -20.928  1.00  0.00     0.238 C 
HETATM   21  O   UNL     1      11.306  -8.347 -21.799  1.00  0.00    -0.272 OA
HETATM   22 BR   UNL     1      14.532  -8.018 -22.987  1.00  0.00    -0.074 Br
ENDROOT
BRANCH  19  23
HETATM   23  C   UNL     1       9.471  -7.334 -19.733  1.00  0.00     0.061 A 
HETATM   24  C   UNL     1       9.114  -8.381 -18.859  1.00  0.00     0.031 A 
HETATM   25  C   UNL     1       7.774  -8.630 -18.536  1.00  0.00     0.002 A 
HETATM   26  C   UNL     1       6.770  -7.846 -19.089  1.00  0.00     0.001 A 
HETATM   27  C   UNL     1       7.104  -6.803 -19.955  1.00  0.00     0.020 A 
HETATM   28  C   UNL     1       8.449  -6.526 -20.283  1.00  0.00     0.066 A 
BRANCH  28  29
HETATM   29  C   UNL     1       8.640  -5.384 -21.228  1.00  0.00     0.296 C 
HETATM   30  O   UNL     1       8.833  -5.560 -22.424  1.00  0.00    -0.259 OA
BRANCH  29  31
HETATM   31  O   UNL     1       8.734  -4.184 -20.605  1.00  0.00    -0.310 OA
BRANCH  31  32
HETATM   32  C   UNL     1       9.490  -3.159 -21.302  1.00  0.00     0.263 C 
BRANCH  32  33
HETATM   33  C   UNL     1      10.877  -3.029 -20.682  1.00  0.00     0.183 C 
HETATM   34  O   UNL     1      10.999  -2.658 -19.510  1.00  0.00    -0.290 OA
BRANCH  33  35
HETATM   35  C   UNL     1      12.141  -3.372 -21.439  1.00  0.00     0.014 A 
HETATM   36  C   UNL     1      13.450  -3.191 -20.952  1.00  0.00     0.015 A 
HETATM   37  C   UNL     1      14.555  -3.601 -21.730  1.00  0.00     0.003 A 
HETATM   38  C   UNL     1      14.376  -4.175 -22.993  1.00  0.00     0.036 A 
HETATM   39  C   UNL     1      13.077  -4.335 -23.482  1.00  0.00     0.103 A 
HETATM   40  C   UNL     1      11.976  -3.937 -22.717  1.00  0.00     0.051 A 
BRANCH  39  41
HETATM   41  N   UNL     1      12.862  -4.945 -24.802  1.00  0.00    -0.116 N 
HETATM   42  O   UNL     1      13.195  -4.294 -25.800  1.00  0.00    -0.532 OA
HETATM   43  O   UNL     1      12.367  -6.082 -24.837  1.00  0.00    -0.532 OA
ENDBRANCH  39  41
ENDBRANCH  33  35
ENDBRANCH  32  33
ENDBRANCH  31  32
ENDBRANCH  29  31
ENDBRANCH  28  29
ENDBRANCH  19  23
TORSDOF 7
ENDMDL
MODEL 8
REMARK VINA RESULT:      -7.9      2.687      6.436
REMARK  7 active torsions:
REMARK  status: ('A' for Active; 'I' for Inactive)
REMARK    1  A    between atoms: N_19  and  C_20 
REMARK    2  A    between atoms: C_25  and  C_26 
REMARK    3  A    between atoms: C_26  and  O_28 
REMARK    4  A    between atoms: O_28  and  C_29 
REMARK    5  A    between atoms: C_29  and  C_30 
REMARK    6  A    between atoms: C_30  and  C_32 
REMARK    7  A    between atoms: C_36  and  N_38 
ROOT
HETATM    1  C   UNL     1      17.872  -0.111 -19.728  1.00  0.00     0.001 C 
HETATM    2  C   UNL     1      16.870   0.633 -19.093  1.00  0.00     0.001 C 
HETATM    3  C   UNL     1      15.641   0.049 -18.751  1.00  0.00     0.010 C 
HETATM    4  C   UNL     1      15.413  -1.292 -19.055  1.00  0.00    -0.026 C 
HETATM    5  C   UNL     1      16.388  -1.983 -19.836  1.00  0.00    -0.041 C 
HETATM    6  C   UNL     1      17.631  -1.423 -20.119  1.00  0.00     0.008 C 
HETATM    7  C   UNL     1      15.982  -3.415 -20.203  1.00  0.00     0.067 C 
HETATM    8  C   UNL     1      14.563  -3.342 -20.825  1.00  0.00    -0.041 A 
HETATM    9  C   UNL     1      14.192  -3.859 -22.058  1.00  0.00     0.008 A 
HETATM   10  C   UNL     1      12.891  -3.631 -22.533  1.00  0.00     0.001 A 
HETATM   11  C   UNL     1      11.979  -2.870 -21.793  1.00  0.00     0.001 A 
HETATM   12  C   UNL     1      12.335  -2.353 -20.551  1.00  0.00     0.010 A 
HETATM   13  C   UNL     1      13.611  -2.613 -20.052  1.00  0.00    -0.026 A 
HETATM   14  C   UNL     1      14.186  -2.186 -18.708  1.00  0.00     0.086 C 
HETATM   15  C   UNL     1      14.715  -3.506 -18.031  1.00  0.00     0.121 C 
HETATM   16  C   UNL     1      15.954  -4.032 -18.792  1.00  0.00     0.107 C 
HETATM   17  C   UNL     1      15.837  -5.521 -18.779  1.00  0.00     0.237 C 
HETATM   18  O   UNL     1      16.704  -6.267 -19.204  1.00  0.00    -0.272 OA
HETATM   19  N   UNL     1      14.602  -5.849 -18.296  1.00  0.00    -0.251 N 
HETATM   20  C   UNL     1      13.806  -4.739 -18.073  1.00  0.00     0.238 C 
HETATM   21  O   UNL     1      12.600  -4.730 -17.871  1.00  0.00    -0.272 OA
HETATM   22 BR   UNL     1      12.938  -1.312 -17.513  1.00  0.00    -0.074 Br
ENDROOT
BRANCH  19  23
HETATM   23  C   UNL     1      14.155  -7.190 -18.316  1.00  0.00     0.061 A 
HETATM   24  C   UNL     1      13.528  -7.679 -19.480  1.00  0.00     0.031 A 
HETATM   25  C   UNL     1      13.180  -9.030 -19.603  1.00  0.00     0.002 A 
HETATM   26  C   UNL     1      13.443  -9.911 -18.561  1.00  0.00     0.001 A 
HETATM   27  C   UNL     1      14.065  -9.445 -17.401  1.00  0.00     0.020 A 
HETATM   28  C   UNL     1      14.436  -8.091 -17.263  1.00  0.00     0.066 A 
BRANCH  28  29
HETATM   29  C   UNL     1      15.085  -7.749 -15.960  1.00  0.00     0.296 C 
HETATM   30  O   UNL     1      16.296  -7.833 -15.799  1.00  0.00    -0.259 OA
BRANCH  29  31
HETATM   31  O   UNL     1      14.195  -7.500 -14.969  1.00  0.00    -0.310 OA
BRANCH  31  32
HETATM   32  C   UNL     1      13.762  -6.120 -14.831  1.00  0.00     0.263 C 
BRANCH  32  33
HETATM   33  C   UNL     1      14.779  -5.339 -14.006  1.00  0.00     0.183 C 
HETATM   34  O   UNL     1      15.080  -5.723 -12.871  1.00  0.00    -0.290 OA
BRANCH  33  35
HETATM   35  C   UNL     1      15.480  -4.107 -14.535  1.00  0.00     0.014 A 
HETATM   36  C   UNL     1      14.978  -2.794 -14.453  1.00  0.00     0.015 A 
HETATM   37  C   UNL     1      15.749  -1.713 -14.934  1.00  0.00     0.003 A 
HETATM   38  C   UNL     1      17.006  -1.922 -15.509  1.00  0.00     0.036 A 
HETATM   39  C   UNL     1      17.493  -3.229 -15.606  1.00  0.00     0.103 A 
HETATM   40  C   UNL     1      16.739  -4.305 -15.129  1.00  0.00     0.051 A 
BRANCH  39  41
HETATM   41  N   UNL     1      18.817  -3.474 -16.198  1.00  0.00    -0.116 N 
HETATM   42  O   UNL     1      18.936  -4.435 -16.967  1.00  0.00    -0.532 OA
HETATM   43  O   UNL     1      19.735  -2.697 -15.896  1.00  0.00    -0.532 OA
ENDBRANCH  39  41
ENDBRANCH  33  35
ENDBRANCH  32  33
ENDBRANCH  31  32
ENDBRANCH  29  31
ENDBRANCH  28  29
ENDBRANCH  19  23
TORSDOF 7
ENDMDL
MODEL 9
REMARK VINA RESULT:      -7.9      3.030      6.549
REMARK  7 active torsions:
REMARK  status: ('A' for Active; 'I' for Inactive)
REMARK    1  A    between atoms: N_19  and  C_20 
REMARK    2  A    between atoms: C_25  and  C_26 
REMARK    3  A    between atoms: C_26  and  O_28 
REMARK    4  A    between atoms: O_28  and  C_29 
REMARK    5  A    between atoms: C_29  and  C_30 
REMARK    6  A    between atoms: C_30  and  C_32 
REMARK    7  A    between atoms: C_36  and  N_38 
ROOT
HETATM    1  C   UNL     1      15.479  -5.488 -13.874  1.00  0.00     0.001 C 
HETATM    2  C   UNL     1      16.447  -4.477 -13.832  1.00  0.00     0.001 C 
HETATM    3  C   UNL     1      16.856  -3.818 -15.000  1.00  0.00     0.010 C 
HETATM    4  C   UNL     1      16.294  -4.180 -16.223  1.00  0.00    -0.026 C 
HETATM    5  C   UNL     1      15.426  -5.313 -16.258  1.00  0.00    -0.041 C 
HETATM    6  C   UNL     1      14.972  -5.925 -15.093  1.00  0.00     0.008 C 
HETATM    7  C   UNL     1      14.957  -5.686 -17.669  1.00  0.00     0.067 C 
HETATM    8  C   UNL     1      16.223  -5.792 -18.559  1.00  0.00    -0.041 A 
HETATM    9  C   UNL     1      16.575  -6.884 -19.339  1.00  0.00     0.008 A 
HETATM   10  C   UNL     1      17.804  -6.873 -20.017  1.00  0.00     0.001 A 
HETATM   11  C   UNL     1      18.683  -5.791 -19.895  1.00  0.00     0.001 A 
HETATM   12  C   UNL     1      18.338  -4.687 -19.122  1.00  0.00     0.010 A 
HETATM   13  C   UNL     1      17.101  -4.670 -18.480  1.00  0.00    -0.026 A 
HETATM   14  C   UNL     1      16.510  -3.552 -17.631  1.00  0.00     0.086 C 
HETATM   15  C   UNL     1      15.097  -3.243 -18.254  1.00  0.00     0.121 C 
HETATM   16  C   UNL     1      14.134  -4.426 -17.996  1.00  0.00     0.107 C 
HETATM   17  C   UNL     1      13.298  -4.545 -19.228  1.00  0.00     0.237 C 
HETATM   18  O   UNL     1      12.356  -5.315 -19.329  1.00  0.00    -0.272 OA
HETATM   19  N   UNL     1      13.823  -3.722 -20.183  1.00  0.00    -0.251 N 
HETATM   20  C   UNL     1      15.003  -3.123 -19.779  1.00  0.00     0.238 C 
HETATM   21  O   UNL     1      15.807  -2.535 -20.488  1.00  0.00    -0.272 OA
HETATM   22 BR   UNL     1      17.551  -1.920 -17.571  1.00  0.00    -0.074 Br
ENDROOT
BRANCH  19  23
HETATM   23  C   UNL     1      13.326  -3.746 -21.506  1.00  0.00     0.061 A 
HETATM   24  C   UNL     1      14.078  -4.400 -22.502  1.00  0.00     0.031 A 
HETATM   25  C   UNL     1      13.575  -4.565 -23.799  1.00  0.00     0.002 A 
HETATM   26  C   UNL     1      12.318  -4.070 -24.123  1.00  0.00     0.001 A 
HETATM   27  C   UNL     1      11.557  -3.421 -23.149  1.00  0.00     0.020 A 
HETATM   28  C   UNL     1      12.039  -3.257 -21.833  1.00  0.00     0.066 A 
BRANCH  28  29
HETATM   29  C   UNL     1      11.110  -2.535 -20.911  1.00  0.00     0.296 C 
HETATM   30  O   UNL     1       9.911  -2.784 -20.876  1.00  0.00    -0.259 OA
BRANCH  29  31
HETATM   31  O   UNL     1      11.698  -1.503 -20.259  1.00  0.00    -0.310 OA
BRANCH  31  32
HETATM   32  C   UNL     1      11.451  -1.425 -18.830  1.00  0.00     0.263 C 
BRANCH  32  33
HETATM   33  C   UNL     1      12.229  -0.257 -18.234  1.00  0.00     0.183 C 
HETATM   34  O   UNL     1      12.104   0.877 -18.710  1.00  0.00    -0.290 OA
BRANCH  33  35
HETATM   35  C   UNL     1      13.142  -0.414 -17.038  1.00  0.00     0.014 A 
HETATM   36  C   UNL     1      13.014  -1.409 -16.049  1.00  0.00     0.015 A 
HETATM   37  C   UNL     1      13.962  -1.491 -15.005  1.00  0.00     0.003 A 
HETATM   38  C   UNL     1      15.027  -0.588 -14.924  1.00  0.00     0.036 A 
HETATM   39  C   UNL     1      15.140   0.409 -15.897  1.00  0.00     0.103 A 
HETATM   40  C   UNL     1      14.209   0.496 -16.937  1.00  0.00     0.051 A 
BRANCH  39  41
HETATM   41  N   UNL     1      16.257   1.363 -15.840  1.00  0.00    -0.116 N 
HETATM   42  O   UNL     1      16.119   2.449 -16.417  1.00  0.00    -0.532 OA
HETATM   43  O   UNL     1      17.270   1.026 -15.209  1.00  0.00    -0.532 OA
ENDBRANCH  39  41
ENDBRANCH  33  35
ENDBRANCH  32  33
ENDBRANCH  31  32
ENDBRANCH  29  31
ENDBRANCH  28  29
ENDBRANCH  19  23
TORSDOF 7
ENDMDL
