MODEL 1
REMARK VINA RESULT:      -7.7      0.000      0.000
REMARK  6 active torsions:
REMARK  status: ('A' for Active; 'I' for Inactive)
REMARK    1  A    between atoms: C_5  and  N_8 
REMARK       I    between atoms: N_8  and  C_9 
REMARK    2  A    between atoms: C_9  and  C_11 
REMARK    3  A    between atoms: C_11  and  N_13 
REMARK    4  A    between atoms: C_22  and  C_23 
REMARK    5  A    between atoms: C_28  and  S_30 
REMARK    6  A    between atoms: S_30  and  N_33 
ROOT
HETATM    1  C   UNL     1      22.098  -1.435 -22.417  1.00  0.00     0.048 C 
HETATM    2  C   UNL     1      20.981  -0.858 -21.596  1.00  0.00    -0.062 A 
HETATM    3  C   UNL     1      21.217   0.202 -20.720  1.00  0.00     0.009 A 
HETATM    4  C   UNL     1      20.186   0.711 -19.921  1.00  0.00     0.030 A 
HETATM    5  C   UNL     1      18.899   0.169 -19.973  1.00  0.00     0.034 A 
HETATM    6  C   UNL     1      18.662  -0.893 -20.856  1.00  0.00     0.030 A 
HETATM    7  C   UNL     1      19.691  -1.394 -21.668  1.00  0.00     0.009 A 
ENDROOT
BRANCH   5   8
HETATM    8  N   UNL     1      17.837   0.612 -19.151  1.00  0.00    -0.325 N 
HETATM    9  C   UNL     1      16.971   1.663 -19.423  1.00  0.00     0.246 C 
HETATM   10  O   UNL     1      16.870   2.219 -20.519  1.00  0.00    -0.271 OA
HETATM   11  HN  UNL     1      17.661   0.100 -18.294  1.00  0.00     0.169 HD
BRANCH   9  12
HETATM   12  C   UNL     1      15.936   1.960 -18.314  1.00  0.00     0.199 C 
HETATM   13  C   UNL     1      14.949   3.005 -18.824  1.00  0.00     0.044 C 
BRANCH  12  14
HETATM   14  N   UNL     1      15.321   0.718 -17.818  1.00  0.00    -0.243 N 
HETATM   15  C   UNL     1      15.232   0.582 -16.438  1.00  0.00     0.269 C 
HETATM   16  O   UNL     1      15.617   1.430 -15.638  1.00  0.00    -0.266 OA
HETATM   17  C   UNL     1      14.720  -0.720 -15.954  1.00  0.00     0.020 C 
HETATM   18  C   UNL     1      14.994  -1.012 -14.501  1.00  0.00     0.045 C 
HETATM   19  C   UNL     1      14.102  -1.574 -16.789  1.00  0.00    -0.017 C 
HETATM   20  C   UNL     1      14.151  -2.165 -13.971  1.00  0.00     0.005 C 
HETATM   21  C   UNL     1      14.223  -3.343 -14.934  1.00  0.00     0.005 C 
HETATM   22  C   UNL     1      13.696  -2.950 -16.321  1.00  0.00     0.042 C 
HETATM   23  C   UNL     1      13.958  -1.112 -18.215  1.00  0.00     0.065 C 
HETATM   24  N   UNL     1      14.601  -0.080 -18.692  1.00  0.00    -0.294 N 
HETATM   25  HN  UNL     1      14.574   0.134 -19.689  1.00  0.00     0.187 HD
BRANCH  23  26
HETATM   26  C   UNL     1      13.039  -1.850 -19.165  1.00  0.00    -0.006 A 
HETATM   27  C   UNL     1      11.657  -1.611 -19.115  1.00  0.00     0.014 A 
HETATM   28  C   UNL     1      10.768  -2.319 -19.938  1.00  0.00     0.009 A 
HETATM   29  C   UNL     1      11.221  -3.288 -20.849  1.00  0.00    -0.039 A 
HETATM   30  C   UNL     1      10.222  -4.023 -21.697  1.00  0.00     0.050 C 
HETATM   31  C   UNL     1      12.603  -3.541 -20.887  1.00  0.00     0.086 A 
HETATM   32  C   UNL     1      13.489  -2.851 -20.034  1.00  0.00     0.039 A 
BRANCH  31  33
HETATM   33  S   UNL     1      13.319  -4.705 -22.047  1.00  0.00     0.259 S 
HETATM   34  O   UNL     1      12.775  -6.015 -21.762  1.00  0.00    -0.201 OA
HETATM   35  O   UNL     1      13.224  -4.138 -23.376  1.00  0.00    -0.201 OA
BRANCH  33  36
HETATM   36  N   UNL     1      14.938  -4.741 -21.617  1.00  0.00    -0.320 N 
HETATM   37  C   UNL     1      15.432  -5.899 -20.882  1.00  0.00     0.159 C 
HETATM   38  HN  UNL     1      15.277  -3.821 -21.341  1.00  0.00     0.171 HD
ENDBRANCH  33  36
ENDBRANCH  31  33
ENDBRANCH  23  26
ENDBRANCH  12  14
ENDBRANCH   9  12
ENDBRANCH   5   8
TORSDOF 6
ENDMDL
MODEL 2
REMARK VINA RESULT:      -7.7      1.037      1.269
REMARK  6 active torsions:
REMARK  status: ('A' for Active; 'I' for Inactive)
REMARK    1  A    between atoms: C_5  and  N_8 
REMARK       I    between atoms: N_8  and  C_9 
REMARK    2  A    between atoms: C_9  and  C_11 
REMARK    3  A    between atoms: C_11  and  N_13 
REMARK    4  A    between atoms: C_22  and  C_23 
REMARK    5  A    between atoms: C_28  and  S_30 
REMARK    6  A    between atoms: S_30  and  N_33 
ROOT
HETATM    1  C   UNL     1      22.886  -3.086 -22.012  1.00  0.00     0.048 C 
HETATM    2  C   UNL     1      21.666  -2.351 -21.541  1.00  0.00    -0.062 A 
HETATM    3  C   UNL     1      21.032  -1.422 -22.366  1.00  0.00     0.009 A 
HETATM    4  C   UNL     1      19.920  -0.702 -21.910  1.00  0.00     0.030 A 
HETATM    5  C   UNL     1      19.421  -0.889 -20.619  1.00  0.00     0.034 A 
HETATM    6  C   UNL     1      20.055  -1.825 -19.792  1.00  0.00     0.030 A 
HETATM    7  C   UNL     1      21.160  -2.558 -20.253  1.00  0.00     0.009 A 
ENDROOT
BRANCH   5   8
HETATM    8  N   UNL     1      18.335  -0.153 -20.093  1.00  0.00    -0.325 N 
HETATM    9  C   UNL     1      18.392   0.771 -19.057  1.00  0.00     0.246 C 
HETATM   10  O   UNL     1      19.436   1.239 -18.596  1.00  0.00    -0.271 OA
HETATM   11  HN  UNL     1      17.427  -0.279 -20.527  1.00  0.00     0.169 HD
BRANCH   9  12
HETATM   12  C   UNL     1      17.033   1.384 -18.652  1.00  0.00     0.199 C 
HETATM   13  C   UNL     1      16.462   2.152 -19.839  1.00  0.00     0.044 C 
BRANCH  12  14
HETATM   14  N   UNL     1      16.137   0.359 -18.091  1.00  0.00    -0.243 N 
HETATM   15  C   UNL     1      15.960   0.382 -16.712  1.00  0.00     0.269 C 
HETATM   16  O   UNL     1      16.489   1.201 -15.966  1.00  0.00    -0.266 OA
HETATM   17  C   UNL     1      15.153  -0.725 -16.151  1.00  0.00     0.020 C 
HETATM   18  C   UNL     1      15.293  -0.925 -14.664  1.00  0.00     0.045 C 
HETATM   19  C   UNL     1      14.398  -1.503 -16.947  1.00  0.00    -0.017 C 
HETATM   20  C   UNL     1      14.194  -1.811 -14.091  1.00  0.00     0.005 C 
HETATM   21  C   UNL     1      14.045  -3.065 -14.941  1.00  0.00     0.005 C 
HETATM   22  C   UNL     1      13.678  -2.706 -16.388  1.00  0.00     0.042 C 
HETATM   23  C   UNL     1      14.422  -1.163 -18.414  1.00  0.00     0.065 C 
HETATM   24  N   UNL     1      15.297  -0.347 -18.936  1.00  0.00    -0.294 N 
HETATM   25  HN  UNL     1      15.360  -0.231 -19.948  1.00  0.00     0.187 HD
BRANCH  23  26
HETATM   26  C   UNL     1      13.403  -1.775 -19.353  1.00  0.00    -0.006 A 
HETATM   27  C   UNL     1      12.074  -1.327 -19.317  1.00  0.00     0.014 A 
HETATM   28  C   UNL     1      11.089  -1.911 -20.130  1.00  0.00     0.009 A 
HETATM   29  C   UNL     1      11.393  -2.959 -21.015  1.00  0.00    -0.039 A 
HETATM   30  C   UNL     1      10.296  -3.553 -21.853  1.00  0.00     0.050 C 
HETATM   31  C   UNL     1      12.720  -3.419 -21.038  1.00  0.00     0.086 A 
HETATM   32  C   UNL     1      13.698  -2.853 -20.196  1.00  0.00     0.039 A 
BRANCH  31  33
HETATM   33  S   UNL     1      13.255  -4.706 -22.167  1.00  0.00     0.259 S 
HETATM   34  O   UNL     1      12.503  -5.905 -21.869  1.00  0.00    -0.201 OA
HETATM   35  O   UNL     1      13.268  -4.157 -23.507  1.00  0.00    -0.201 OA
BRANCH  33  36
HETATM   36  N   UNL     1      14.841  -4.993 -21.713  1.00  0.00    -0.320 N 
HETATM   37  C   UNL     1      15.164  -6.278 -21.107  1.00  0.00     0.159 C 
HETATM   38  HN  UNL     1      15.281  -4.159 -21.325  1.00  0.00     0.171 HD
ENDBRANCH  33  36
ENDBRANCH  31  33
ENDBRANCH  23  26
ENDBRANCH  12  14
ENDBRANCH   9  12
ENDBRANCH   5   8
TORSDOF 6
ENDMDL
MODEL 3
REMARK VINA RESULT:      -7.6      3.118      8.418
REMARK  6 active torsions:
REMARK  status: ('A' for Active; 'I' for Inactive)
REMARK    1  A    between atoms: C_5  and  N_8 
REMARK       I    between atoms: N_8  and  C_9 
REMARK    2  A    between atoms: C_9  and  C_11 
REMARK    3  A    between atoms: C_11  and  N_13 
REMARK    4  A    between atoms: C_22  and  C_23 
REMARK    5  A    between atoms: C_28  and  S_30 
REMARK    6  A    between atoms: S_30  and  N_33 
ROOT
HETATM    1  C   UNL     1       8.556  -5.230 -21.769  1.00  0.00     0.048 C 
HETATM    2  C   UNL     1       9.588  -4.563 -20.908  1.00  0.00    -0.062 A 
HETATM    3  C   UNL     1       9.706  -3.172 -20.887  1.00  0.00     0.009 A 
HETATM    4  C   UNL     1      10.699  -2.551 -20.119  1.00  0.00     0.030 A 
HETATM    5  C   UNL     1      11.600  -3.303 -19.362  1.00  0.00     0.034 A 
HETATM    6  C   UNL     1      11.479  -4.699 -19.380  1.00  0.00     0.030 A 
HETATM    7  C   UNL     1      10.474  -5.322 -20.137  1.00  0.00     0.009 A 
ENDROOT
BRANCH   5   8
HETATM    8  N   UNL     1      12.651  -2.728 -18.611  1.00  0.00    -0.325 N 
HETATM    9  C   UNL     1      13.965  -2.564 -19.029  1.00  0.00     0.246 C 
HETATM   10  O   UNL     1      14.350  -2.698 -20.193  1.00  0.00    -0.271 OA
HETATM   11  HN  UNL     1      12.428  -2.369 -17.689  1.00  0.00     0.169 HD
BRANCH   9  12
HETATM   12  C   UNL     1      14.916  -1.955 -17.973  1.00  0.00     0.199 C 
HETATM   13  C   UNL     1      15.790  -3.063 -17.395  1.00  0.00     0.044 C 
BRANCH  12  14
HETATM   14  N   UNL     1      15.656  -0.809 -18.526  1.00  0.00    -0.243 N 
HETATM   15  C   UNL     1      15.340   0.440 -18.003  1.00  0.00     0.269 C 
HETATM   16  O   UNL     1      14.509   0.623 -17.118  1.00  0.00    -0.266 OA
HETATM   17  C   UNL     1      16.006   1.593 -18.650  1.00  0.00     0.020 C 
HETATM   18  C   UNL     1      15.379   2.933 -18.365  1.00  0.00     0.045 C 
HETATM   19  C   UNL     1      17.061   1.415 -19.464  1.00  0.00    -0.017 C 
HETATM   20  C   UNL     1      16.291   4.093 -18.742  1.00  0.00     0.005 C 
HETATM   21  C   UNL     1      16.847   3.880 -20.143  1.00  0.00     0.005 C 
HETATM   22  C   UNL     1      17.656   2.578 -20.220  1.00  0.00     0.042 C 
HETATM   23  C   UNL     1      17.515  -0.010 -19.651  1.00  0.00     0.065 C 
HETATM   24  N   UNL     1      16.801  -1.035 -19.271  1.00  0.00    -0.294 N 
HETATM   25  HN  UNL     1      17.081  -1.984 -19.519  1.00  0.00     0.187 HD
BRANCH  23  26
HETATM   26  C   UNL     1      18.850  -0.303 -20.303  1.00  0.00    -0.006 A 
HETATM   27  C   UNL     1      18.883  -0.810 -21.611  1.00  0.00     0.014 A 
HETATM   28  C   UNL     1      20.099  -1.150 -22.227  1.00  0.00     0.009 A 
HETATM   29  C   UNL     1      21.328  -0.991 -21.566  1.00  0.00    -0.039 A 
HETATM   30  C   UNL     1      22.596  -1.382 -22.270  1.00  0.00     0.050 C 
HETATM   31  C   UNL     1      21.294  -0.500 -20.250  1.00  0.00     0.086 A 
HETATM   32  C   UNL     1      20.069  -0.192 -19.623  1.00  0.00     0.039 A 
BRANCH  31  33
HETATM   33  S   UNL     1      22.793  -0.190 -19.317  1.00  0.00     0.259 S 
HETATM   34  O   UNL     1      23.420  -1.463 -19.038  1.00  0.00    -0.201 OA
HETATM   35  O   UNL     1      23.529   0.867 -19.980  1.00  0.00    -0.201 OA
BRANCH  33  36
HETATM   36  N   UNL     1      22.231   0.412 -17.859  1.00  0.00    -0.320 N 
HETATM   37  C   UNL     1      22.528  -0.335 -16.642  1.00  0.00     0.159 C 
HETATM   38  HN  UNL     1      21.303   0.823 -17.951  1.00  0.00     0.171 HD
ENDBRANCH  33  36
ENDBRANCH  31  33
ENDBRANCH  23  26
ENDBRANCH  12  14
ENDBRANCH   9  12
ENDBRANCH   5   8
TORSDOF 6
ENDMDL
MODEL 4
REMARK VINA RESULT:      -7.6      1.897      2.446
REMARK  6 active torsions:
REMARK  status: ('A' for Active; 'I' for Inactive)
REMARK    1  A    between atoms: C_5  and  N_8 
REMARK       I    between atoms: N_8  and  C_9 
REMARK    2  A    between atoms: C_9  and  C_11 
REMARK    3  A    between atoms: C_11  and  N_13 
REMARK    4  A    between atoms: C_22  and  C_23 
REMARK    5  A    between atoms: C_28  and  S_30 
REMARK    6  A    between atoms: S_30  and  N_33 
ROOT
HETATM    1  C   UNL     1      23.122  -2.886 -22.031  1.00  0.00     0.048 C 
HETATM    2  C   UNL     1      21.856  -2.246 -21.541  1.00  0.00    -0.062 A 
HETATM    3  C   UNL     1      21.094  -1.438 -22.386  1.00  0.00     0.009 A 
HETATM    4  C   UNL     1      19.938  -0.803 -21.917  1.00  0.00     0.030 A 
HETATM    5  C   UNL     1      19.520  -0.955 -20.593  1.00  0.00     0.034 A 
HETATM    6  C   UNL     1      20.283  -1.769 -19.745  1.00  0.00     0.030 A 
HETATM    7  C   UNL     1      21.434  -2.418 -20.219  1.00  0.00     0.009 A 
ENDROOT
BRANCH   5   8
HETATM    8  N   UNL     1      18.390  -0.296 -20.056  1.00  0.00    -0.325 N 
HETATM    9  C   UNL     1      18.405   0.794 -19.195  1.00  0.00     0.246 C 
HETATM   10  O   UNL     1      19.403   1.477 -18.952  1.00  0.00    -0.271 OA
HETATM   11  HN  UNL     1      17.474  -0.623 -20.344  1.00  0.00     0.169 HD
BRANCH   9  12
HETATM   12  C   UNL     1      17.014   1.273 -18.722  1.00  0.00     0.199 C 
HETATM   13  C   UNL     1      16.410   2.176 -19.792  1.00  0.00     0.044 C 
BRANCH  12  14
HETATM   14  N   UNL     1      16.170   0.134 -18.325  1.00  0.00    -0.243 N 
HETATM   15  C   UNL     1      15.579   0.212 -17.069  1.00  0.00     0.269 C 
HETATM   16  O   UNL     1      15.713   1.164 -16.305  1.00  0.00    -0.266 OA
HETATM   17  C   UNL     1      14.831  -0.990 -16.637  1.00  0.00     0.020 C 
HETATM   18  C   UNL     1      14.540  -1.063 -15.161  1.00  0.00     0.045 C 
HETATM   19  C   UNL     1      14.493  -1.949 -17.518  1.00  0.00    -0.017 C 
HETATM   20  C   UNL     1      13.479  -2.104 -14.828  1.00  0.00     0.005 C 
HETATM   21  C   UNL     1      13.803  -3.416 -15.529  1.00  0.00     0.005 C 
HETATM   22  C   UNL     1      13.843  -3.228 -17.051  1.00  0.00     0.042 C 
HETATM   23  C   UNL     1      14.908  -1.706 -18.946  1.00  0.00     0.065 C 
HETATM   24  N   UNL     1      15.756  -0.773 -19.286  1.00  0.00    -0.294 N 
HETATM   25  HN  UNL     1      16.106  -0.713 -20.243  1.00  0.00     0.187 HD
BRANCH  23  26
HETATM   26  C   UNL     1      14.340  -2.562 -20.059  1.00  0.00    -0.006 A 
HETATM   27  C   UNL     1      15.210  -3.308 -20.869  1.00  0.00     0.014 A 
HETATM   28  C   UNL     1      14.726  -4.066 -21.947  1.00  0.00     0.009 A 
HETATM   29  C   UNL     1      13.356  -4.115 -22.256  1.00  0.00    -0.039 A 
HETATM   30  C   UNL     1      12.896  -4.934 -23.428  1.00  0.00     0.050 C 
HETATM   31  C   UNL     1      12.487  -3.354 -21.455  1.00  0.00     0.086 A 
HETATM   32  C   UNL     1      12.981  -2.568 -20.394  1.00  0.00     0.039 A 
BRANCH  31  33
HETATM   33  S   UNL     1      10.711  -3.378 -21.700  1.00  0.00     0.259 S 
HETATM   34  O   UNL     1      10.095  -2.687 -20.589  1.00  0.00    -0.201 OA
HETATM   35  O   UNL     1      10.436  -2.976 -23.065  1.00  0.00    -0.201 OA
BRANCH  33  36
HETATM   36  N   UNL     1      10.316  -4.999 -21.553  1.00  0.00    -0.320 N 
HETATM   37  C   UNL     1      10.402  -5.613 -20.233  1.00  0.00     0.159 C 
HETATM   38  HN  UNL     1      10.638  -5.542 -22.353  1.00  0.00     0.171 HD
ENDBRANCH  33  36
ENDBRANCH  31  33
ENDBRANCH  23  26
ENDBRANCH  12  14
ENDBRANCH   9  12
ENDBRANCH   5   8
TORSDOF 6
ENDMDL
MODEL 5
REMARK VINA RESULT:      -7.5      1.696      2.105
REMARK  6 active torsions:
REMARK  status: ('A' for Active; 'I' for Inactive)
REMARK    1  A    between atoms: C_5  and  N_8 
REMARK       I    between atoms: N_8  and  C_9 
REMARK    2  A    between atoms: C_9  and  C_11 
REMARK    3  A    between atoms: C_11  and  N_13 
REMARK    4  A    between atoms: C_22  and  C_23 
REMARK    5  A    between atoms: C_28  and  S_30 
REMARK    6  A    between atoms: S_30  and  N_33 
ROOT
HETATM    1  C   UNL     1      22.168  -2.168 -22.285  1.00  0.00     0.048 C 
HETATM    2  C   UNL     1      20.900  -1.824 -21.560  1.00  0.00    -0.062 A 
HETATM    3  C   UNL     1      20.157  -0.698 -21.920  1.00  0.00     0.009 A 
HETATM    4  C   UNL     1      18.999  -0.351 -21.213  1.00  0.00     0.030 A 
HETATM    5  C   UNL     1      18.560  -1.114 -20.129  1.00  0.00     0.034 A 
HETATM    6  C   UNL     1      19.304  -2.246 -19.770  1.00  0.00     0.030 A 
HETATM    7  C   UNL     1      20.456  -2.604 -20.487  1.00  0.00     0.009 A 
ENDROOT
BRANCH   5   8
HETATM    8  N   UNL     1      17.428  -0.779 -19.352  1.00  0.00    -0.325 N 
HETATM    9  C   UNL     1      17.416  -0.509 -17.989  1.00  0.00     0.246 C 
HETATM   10  O   UNL     1      18.425  -0.312 -17.308  1.00  0.00    -0.271 OA
HETATM   11  HN  UNL     1      16.538  -0.693 -19.830  1.00  0.00     0.169 HD
BRANCH   9  12
HETATM   12  C   UNL     1      16.019  -0.226 -17.391  1.00  0.00     0.199 C 
HETATM   13  C   UNL     1      15.387   0.943 -18.138  1.00  0.00     0.044 C 
BRANCH  12  14
HETATM   14  N   UNL     1      15.202  -1.450 -17.353  1.00  0.00    -0.243 N 
HETATM   15  C   UNL     1      15.048  -2.052 -16.110  1.00  0.00     0.269 C 
HETATM   16  O   UNL     1      15.535  -1.615 -15.070  1.00  0.00    -0.266 OA
HETATM   17  C   UNL     1      14.325  -3.343 -16.108  1.00  0.00     0.020 C 
HETATM   18  C   UNL     1      14.503  -4.171 -14.862  1.00  0.00     0.045 C 
HETATM   19  C   UNL     1      13.609  -3.737 -17.176  1.00  0.00    -0.017 C 
HETATM   20  C   UNL     1      13.474  -5.290 -14.755  1.00  0.00     0.005 C 
HETATM   21  C   UNL     1      13.392  -6.045 -16.074  1.00  0.00     0.005 C 
HETATM   22  C   UNL     1      12.978  -5.108 -17.217  1.00  0.00     0.042 C 
HETATM   23  C   UNL     1      13.585  -2.782 -18.340  1.00  0.00     0.065 C 
HETATM   24  N   UNL     1      14.396  -1.763 -18.435  1.00  0.00    -0.294 N 
HETATM   25  HN  UNL     1      14.434  -1.207 -19.290  1.00  0.00     0.187 HD
BRANCH  23  26
HETATM   26  C   UNL     1      12.593  -2.981 -19.467  1.00  0.00    -0.006 A 
HETATM   27  C   UNL     1      11.299  -2.449 -19.350  1.00  0.00     0.014 A 
HETATM   28  C   UNL     1      10.334  -2.663 -20.347  1.00  0.00     0.009 A 
HETATM   29  C   UNL     1      10.622  -3.410 -21.502  1.00  0.00    -0.039 A 
HETATM   30  C   UNL     1       9.547  -3.616 -22.530  1.00  0.00     0.050 C 
HETATM   31  C   UNL     1      11.912  -3.958 -21.611  1.00  0.00     0.086 A 
HETATM   32  C   UNL     1      12.867  -3.768 -20.591  1.00  0.00     0.039 A 
BRANCH  31  33
HETATM   33  S   UNL     1      12.430  -4.876 -23.061  1.00  0.00     0.259 S 
HETATM   34  O   UNL     1      11.728  -6.141 -23.065  1.00  0.00    -0.201 OA
HETATM   35  O   UNL     1      12.365  -3.991 -24.205  1.00  0.00    -0.201 OA
BRANCH  33  36
HETATM   36  N   UNL     1      14.043  -5.209 -22.759  1.00  0.00    -0.320 N 
HETATM   37  C   UNL     1      14.564  -6.513 -23.152  1.00  0.00     0.159 C 
HETATM   38  HN  UNL     1      14.350  -4.823 -21.867  1.00  0.00     0.171 HD
ENDBRANCH  33  36
ENDBRANCH  31  33
ENDBRANCH  23  26
ENDBRANCH  12  14
ENDBRANCH   9  12
ENDBRANCH   5   8
TORSDOF 6
ENDMDL
MODEL 6
REMARK VINA RESULT:      -7.5      4.814      7.510
REMARK  6 active torsions:
REMARK  status: ('A' for Active; 'I' for Inactive)
REMARK    1  A    between atoms: C_5  and  N_8 
REMARK       I    between atoms: N_8  and  C_9 
REMARK    2  A    between atoms: C_9  and  C_11 
REMARK    3  A    between atoms: C_11  and  N_13 
REMARK    4  A    between atoms: C_22  and  C_23 
REMARK    5  A    between atoms: C_28  and  S_30 
REMARK    6  A    between atoms: S_30  and  N_33 
ROOT
HETATM    1  C   UNL     1      16.169  -6.319 -28.349  1.00  0.00     0.048 C 
HETATM    2  C   UNL     1      15.255  -6.247 -27.162  1.00  0.00    -0.062 A 
HETATM    3  C   UNL     1      14.338  -5.203 -27.032  1.00  0.00     0.009 A 
HETATM    4  C   UNL     1      13.517  -5.110 -25.901  1.00  0.00     0.030 A 
HETATM    5  C   UNL     1      13.597  -6.052 -24.873  1.00  0.00     0.034 A 
HETATM    6  C   UNL     1      14.514  -7.103 -25.006  1.00  0.00     0.030 A 
HETATM    7  C   UNL     1      15.328  -7.205 -26.145  1.00  0.00     0.009 A 
ENDROOT
BRANCH   5   8
HETATM    8  N   UNL     1      12.827  -5.976 -23.689  1.00  0.00    -0.325 N 
HETATM    9  C   UNL     1      13.181  -5.316 -22.520  1.00  0.00     0.246 C 
HETATM   10  O   UNL     1      14.120  -4.522 -22.423  1.00  0.00    -0.271 OA
HETATM   11  HN  UNL     1      11.913  -6.415 -23.694  1.00  0.00     0.169 HD
BRANCH   9  12
HETATM   12  C   UNL     1      12.166  -5.449 -21.361  1.00  0.00     0.199 C 
HETATM   13  C   UNL     1      12.164  -6.892 -20.868  1.00  0.00     0.044 C 
BRANCH  12  14
HETATM   14  N   UNL     1      12.418  -4.440 -20.320  1.00  0.00    -0.243 N 
HETATM   15  C   UNL     1      11.601  -3.316 -20.340  1.00  0.00     0.269 C 
HETATM   16  O   UNL     1      10.697  -3.138 -21.152  1.00  0.00    -0.266 OA
HETATM   17  C   UNL     1      11.942  -2.258 -19.362  1.00  0.00     0.020 C 
HETATM   18  C   UNL     1      11.331  -0.909 -19.644  1.00  0.00     0.045 C 
HETATM   19  C   UNL     1      12.776  -2.506 -18.337  1.00  0.00    -0.017 C 
HETATM   20  C   UNL     1      11.409   0.026 -18.444  1.00  0.00     0.005 C 
HETATM   21  C   UNL     1      12.820   0.018 -17.872  1.00  0.00     0.005 C 
HETATM   22  C   UNL     1      13.219  -1.393 -17.418  1.00  0.00     0.042 C 
HETATM   23  C   UNL     1      13.311  -3.911 -18.250  1.00  0.00     0.065 C 
HETATM   24  N   UNL     1      13.198  -4.772 -19.224  1.00  0.00    -0.294 N 
HETATM   25  HN  UNL     1      13.674  -5.673 -19.180  1.00  0.00     0.187 HD
BRANCH  23  26
HETATM   26  C   UNL     1      14.017  -4.379 -16.994  1.00  0.00    -0.006 A 
HETATM   27  C   UNL     1      13.287  -4.527 -15.805  1.00  0.00     0.014 A 
HETATM   28  C   UNL     1      13.918  -4.902 -14.608  1.00  0.00     0.009 A 
HETATM   29  C   UNL     1      15.299  -5.151 -14.551  1.00  0.00    -0.039 A 
HETATM   30  C   UNL     1      15.922  -5.538 -13.240  1.00  0.00     0.050 C 
HETATM   31  C   UNL     1      16.034  -4.986 -15.738  1.00  0.00     0.086 A 
HETATM   32  C   UNL     1      15.402  -4.576 -16.930  1.00  0.00     0.039 A 
BRANCH  31  33
HETATM   33  S   UNL     1      17.791  -5.332 -15.818  1.00  0.00     0.259 S 
HETATM   34  O   UNL     1      18.202  -5.252 -17.202  1.00  0.00    -0.201 OA
HETATM   35  O   UNL     1      18.456  -4.542 -14.802  1.00  0.00    -0.201 OA
BRANCH  33  36
HETATM   36  N   UNL     1      17.894  -6.942 -15.366  1.00  0.00    -0.320 N 
HETATM   37  C   UNL     1      17.058  -7.910 -16.064  1.00  0.00     0.159 C 
HETATM   38  HN  UNL     1      18.005  -7.046 -14.358  1.00  0.00     0.171 HD
ENDBRANCH  33  36
ENDBRANCH  31  33
ENDBRANCH  23  26
ENDBRANCH  12  14
ENDBRANCH   9  12
ENDBRANCH   5   8
TORSDOF 6
ENDMDL
MODEL 7
REMARK VINA RESULT:      -7.5      4.817      8.305
REMARK  6 active torsions:
REMARK  status: ('A' for Active; 'I' for Inactive)
REMARK    1  A    between atoms: C_5  and  N_8 
REMARK       I    between atoms: N_8  and  C_9 
REMARK    2  A    between atoms: C_9  and  C_11 
REMARK    3  A    between atoms: C_11  and  N_13 
REMARK    4  A    between atoms: C_22  and  C_23 
REMARK    5  A    between atoms: C_28  and  S_30 
REMARK    6  A    between atoms: S_30  and  N_33 
ROOT
HETATM    1  C   UNL     1      16.387  -5.476 -29.492  1.00  0.00     0.048 C 
HETATM    2  C   UNL     1      15.768  -5.899 -28.192  1.00  0.00    -0.062 A 
HETATM    3  C   UNL     1      16.124  -7.110 -27.596  1.00  0.00     0.009 A 
HETATM    4  C   UNL     1      15.513  -7.527 -26.407  1.00  0.00     0.030 A 
HETATM    5  C   UNL     1      14.529  -6.750 -25.791  1.00  0.00     0.034 A 
HETATM    6  C   UNL     1      14.175  -5.533 -26.387  1.00  0.00     0.030 A 
HETATM    7  C   UNL     1      14.798  -5.106 -27.571  1.00  0.00     0.009 A 
ENDROOT
BRANCH   5   8
HETATM    8  N   UNL     1      13.846  -7.149 -24.619  1.00  0.00    -0.325 N 
HETATM    9  C   UNL     1      14.416  -7.376 -23.372  1.00  0.00     0.246 C 
HETATM   10  O   UNL     1      15.563  -7.051 -23.059  1.00  0.00    -0.271 OA
HETATM   11  HN  UNL     1      12.839  -7.253 -24.674  1.00  0.00     0.169 HD
BRANCH   9  12
HETATM   12  C   UNL     1      13.432  -7.861 -22.283  1.00  0.00     0.199 C 
HETATM   13  C   UNL     1      14.055  -9.039 -21.542  1.00  0.00     0.044 C 
BRANCH  12  14
HETATM   14  N   UNL     1      13.004  -6.746 -21.422  1.00  0.00    -0.243 N 
HETATM   15  C   UNL     1      11.854  -6.071 -21.814  1.00  0.00     0.269 C 
HETATM   16  O   UNL     1      11.191  -6.361 -22.806  1.00  0.00    -0.266 OA
HETATM   17  C   UNL     1      11.504  -4.880 -21.007  1.00  0.00     0.020 C 
HETATM   18  C   UNL     1      10.519  -3.940 -21.653  1.00  0.00     0.045 C 
HETATM   19  C   UNL     1      12.077  -4.662 -19.810  1.00  0.00    -0.017 C 
HETATM   20  C   UNL     1       9.924  -2.950 -20.660  1.00  0.00     0.005 C 
HETATM   21  C   UNL     1      11.035  -2.317 -19.832  1.00  0.00     0.005 C 
HETATM   22  C   UNL     1      11.812  -3.386 -19.050  1.00  0.00     0.042 C 
HETATM   23  C   UNL     1      13.067  -5.703 -19.356  1.00  0.00     0.065 C 
HETATM   24  N   UNL     1      13.544  -6.621 -20.153  1.00  0.00    -0.294 N 
HETATM   25  HN  UNL     1      14.299  -7.234 -19.846  1.00  0.00     0.187 HD
BRANCH  23  26
HETATM   26  C   UNL     1      13.552  -5.716 -17.921  1.00  0.00    -0.006 A 
HETATM   27  C   UNL     1      12.616  -5.736 -16.876  1.00  0.00     0.014 A 
HETATM   28  C   UNL     1      13.026  -5.689 -15.534  1.00  0.00     0.009 A 
HETATM   29  C   UNL     1      14.385  -5.627 -15.182  1.00  0.00    -0.039 A 
HETATM   30  C   UNL     1      14.765  -5.568 -13.729  1.00  0.00     0.050 C 
HETATM   31  C   UNL     1      15.321  -5.590 -16.229  1.00  0.00     0.086 A 
HETATM   32  C   UNL     1      14.903  -5.603 -17.575  1.00  0.00     0.039 A 
BRANCH  31  33
HETATM   33  S   UNL     1      17.087  -5.575 -15.917  1.00  0.00     0.259 S 
HETATM   34  O   UNL     1      17.435  -4.285 -15.364  1.00  0.00    -0.201 OA
HETATM   35  O   UNL     1      17.434  -6.796 -15.219  1.00  0.00    -0.201 OA
BRANCH  33  36
HETATM   36  N   UNL     1      17.757  -5.651 -17.450  1.00  0.00    -0.320 N 
HETATM   37  C   UNL     1      18.509  -4.499 -17.933  1.00  0.00     0.159 C 
HETATM   38  HN  UNL     1      17.143  -6.129 -18.109  1.00  0.00     0.171 HD
ENDBRANCH  33  36
ENDBRANCH  31  33
ENDBRANCH  23  26
ENDBRANCH  12  14
ENDBRANCH   9  12
ENDBRANCH   5   8
TORSDOF 6
ENDMDL
MODEL 8
REMARK VINA RESULT:      -7.4      4.490      6.782
REMARK  6 active torsions:
REMARK  status: ('A' for Active; 'I' for Inactive)
REMARK    1  A    between atoms: C_5  and  N_8 
REMARK       I    between atoms: N_8  and  C_9 
REMARK    2  A    between atoms: C_9  and  C_11 
REMARK    3  A    between atoms: C_11  and  N_13 
REMARK    4  A    between atoms: C_22  and  C_23 
REMARK    5  A    between atoms: C_28  and  S_30 
REMARK    6  A    between atoms: S_30  and  N_33 
ROOT
HETATM    1  C   UNL     1      16.099  -7.613 -27.825  1.00  0.00     0.048 C 
HETATM    2  C   UNL     1      15.314  -6.880 -26.777  1.00  0.00    -0.062 A 
HETATM    3  C   UNL     1      15.260  -7.356 -25.466  1.00  0.00     0.009 A 
HETATM    4  C   UNL     1      14.490  -6.699 -24.498  1.00  0.00     0.030 A 
HETATM    5  C   UNL     1      13.752  -5.557 -24.818  1.00  0.00     0.034 A 
HETATM    6  C   UNL     1      13.810  -5.077 -26.134  1.00  0.00     0.030 A 
HETATM    7  C   UNL     1      14.593  -5.726 -27.101  1.00  0.00     0.009 A 
ENDROOT
BRANCH   5   8
HETATM    8  N   UNL     1      12.920  -4.886 -23.893  1.00  0.00    -0.325 N 
HETATM    9  C   UNL     1      13.341  -4.094 -22.832  1.00  0.00     0.246 C 
HETATM   10  O   UNL     1      14.495  -3.687 -22.680  1.00  0.00    -0.271 OA
HETATM   11  HN  UNL     1      11.917  -4.957 -24.024  1.00  0.00     0.169 HD
BRANCH   9  12
HETATM   12  C   UNL     1      12.207  -3.530 -21.947  1.00  0.00     0.199 C 
HETATM   13  C   UNL     1      10.976  -4.419 -22.093  1.00  0.00     0.044 C 
BRANCH  12  14
HETATM   14  N   UNL     1      12.666  -3.334 -20.562  1.00  0.00    -0.243 N 
HETATM   15  C   UNL     1      11.983  -2.380 -19.815  1.00  0.00     0.269 C 
HETATM   16  O   UNL     1      11.035  -1.725 -20.240  1.00  0.00    -0.266 OA
HETATM   17  C   UNL     1      12.530  -2.110 -18.467  1.00  0.00     0.020 C 
HETATM   18  C   UNL     1      12.054  -0.829 -17.831  1.00  0.00     0.045 C 
HETATM   19  C   UNL     1      13.421  -2.944 -17.901  1.00  0.00    -0.017 C 
HETATM   20  C   UNL     1      12.347  -0.779 -16.336  1.00  0.00     0.005 C 
HETATM   21  C   UNL     1      13.794  -1.176 -16.079  1.00  0.00     0.005 C 
HETATM   22  C   UNL     1      14.069  -2.599 -16.583  1.00  0.00     0.042 C 
HETATM   23  C   UNL     1      13.799  -4.153 -18.716  1.00  0.00     0.065 C 
HETATM   24  N   UNL     1      13.499  -4.275 -19.981  1.00  0.00    -0.294 N 
HETATM   25  HN  UNL     1      13.872  -5.049 -20.531  1.00  0.00     0.187 HD
BRANCH  23  26
HETATM   26  C   UNL     1      14.558  -5.296 -18.074  1.00  0.00    -0.006 A 
HETATM   27  C   UNL     1      14.876  -5.233 -16.709  1.00  0.00     0.014 A 
HETATM   28  C   UNL     1      15.630  -6.245 -16.092  1.00  0.00     0.009 A 
HETATM   29  C   UNL     1      16.091  -7.360 -16.811  1.00  0.00    -0.039 A 
HETATM   30  C   UNL     1      16.903  -8.406 -16.102  1.00  0.00     0.050 C 
HETATM   31  C   UNL     1      15.788  -7.414 -18.182  1.00  0.00     0.086 A 
HETATM   32  C   UNL     1      15.060  -6.380 -18.804  1.00  0.00     0.039 A 
BRANCH  31  33
HETATM   33  S   UNL     1      16.261  -8.812 -19.200  1.00  0.00     0.259 S 
HETATM   34  O   UNL     1      16.089 -10.016 -18.417  1.00  0.00    -0.201 OA
HETATM   35  O   UNL     1      15.618  -8.672 -20.491  1.00  0.00    -0.201 OA
BRANCH  33  36
HETATM   36  N   UNL     1      17.907  -8.598 -19.421  1.00  0.00    -0.320 N 
HETATM   37  C   UNL     1      18.359  -7.428 -20.164  1.00  0.00     0.159 C 
HETATM   38  HN  UNL     1      18.386  -9.483 -19.588  1.00  0.00     0.171 HD
ENDBRANCH  33  36
ENDBRANCH  31  33
ENDBRANCH  23  26
ENDBRANCH  12  14
ENDBRANCH   9  12
ENDBRANCH   5   8
TORSDOF 6
ENDMDL
MODEL 9
REMARK VINA RESULT:      -7.3      3.623      5.637
REMARK  6 active torsions:
REMARK  status: ('A' for Active; 'I' for Inactive)
REMARK    1  A    between atoms: C_5  and  N_8 
REMARK       I    between atoms: N_8  and  C_9 
REMARK    2  A    between atoms: C_9  and  C_11 
REMARK    3  A    between atoms: C_11  and  N_13 
REMARK    4  A    between atoms: C_22  and  C_23 
REMARK    5  A    between atoms: C_28  and  S_30 
REMARK    6  A    between atoms: S_30  and  N_33 
ROOT
HETATM    1  C   UNL     1      15.680   3.906 -18.242  1.00  0.00     0.048 C 
HETATM    2  C   UNL     1      15.709   2.553 -17.591  1.00  0.00    -0.062 A 
HETATM    3  C   UNL     1      15.372   1.408 -18.315  1.00  0.00     0.009 A 
HETATM    4  C   UNL     1      15.355   0.152 -17.696  1.00  0.00     0.030 A 
HETATM    5  C   UNL     1      15.666   0.012 -16.342  1.00  0.00     0.034 A 
HETATM    6  C   UNL     1      16.007   1.161 -15.617  1.00  0.00     0.030 A 
HETATM    7  C   UNL     1      16.040   2.418 -16.239  1.00  0.00     0.009 A 
ENDROOT
BRANCH   5   8
HETATM    8  N   UNL     1      15.613  -1.225 -15.658  1.00  0.00    -0.325 N 
HETATM    9  C   UNL     1      14.522  -1.737 -14.967  1.00  0.00     0.246 C 
HETATM   10  O   UNL     1      13.377  -1.285 -15.036  1.00  0.00    -0.271 OA
HETATM   11  HN  UNL     1      16.435  -1.818 -15.695  1.00  0.00     0.169 HD
BRANCH   9  12
HETATM   12  C   UNL     1      14.771  -3.091 -14.265  1.00  0.00     0.199 C 
HETATM   13  C   UNL     1      13.743  -3.269 -13.153  1.00  0.00     0.044 C 
BRANCH  12  14
HETATM   14  N   UNL     1      14.821  -4.192 -15.241  1.00  0.00    -0.243 N 
HETATM   15  C   UNL     1      15.612  -5.283 -14.901  1.00  0.00     0.269 C 
HETATM   16  O   UNL     1      16.239  -5.375 -13.849  1.00  0.00    -0.266 OA
HETATM   17  C   UNL     1      15.746  -6.327 -15.942  1.00  0.00     0.020 C 
HETATM   18  C   UNL     1      16.891  -7.285 -15.739  1.00  0.00     0.045 C 
HETATM   19  C   UNL     1      14.919  -6.358 -17.002  1.00  0.00    -0.017 C 
HETATM   20  C   UNL     1      16.769  -8.529 -16.611  1.00  0.00     0.005 C 
HETATM   21  C   UNL     1      16.458  -8.126 -18.046  1.00  0.00     0.005 C 
HETATM   22  C   UNL     1      15.139  -7.345 -18.122  1.00  0.00     0.042 C 
HETATM   23  C   UNL     1      13.860  -5.288 -17.041  1.00  0.00     0.065 C 
HETATM   24  N   UNL     1      13.881  -4.243 -16.257  1.00  0.00    -0.294 N 
HETATM   25  HN  UNL     1      13.218  -3.480 -16.391  1.00  0.00     0.187 HD
BRANCH  23  26
HETATM   26  C   UNL     1      12.708  -5.393 -18.018  1.00  0.00    -0.006 A 
HETATM   27  C   UNL     1      11.900  -6.541 -18.013  1.00  0.00     0.014 A 
HETATM   28  C   UNL     1      10.860  -6.700 -18.942  1.00  0.00     0.009 A 
HETATM   29  C   UNL     1      10.580  -5.720 -19.909  1.00  0.00    -0.039 A 
HETATM   30  C   UNL     1       9.462  -5.950 -20.885  1.00  0.00     0.050 C 
HETATM   31  C   UNL     1      11.400  -4.579 -19.926  1.00  0.00     0.086 A 
HETATM   32  C   UNL     1      12.464  -4.438 -19.012  1.00  0.00     0.039 A 
BRANCH  31  33
HETATM   33  S   UNL     1      11.111  -3.224 -21.065  1.00  0.00     0.259 S 
HETATM   34  O   UNL     1      11.620  -3.613 -22.362  1.00  0.00    -0.201 OA
HETATM   35  O   UNL     1       9.740  -2.786 -20.910  1.00  0.00    -0.201 OA
BRANCH  33  36
HETATM   36  N   UNL     1      12.108  -2.008 -20.489  1.00  0.00    -0.320 N 
HETATM   37  C   UNL     1      11.519  -0.968 -19.655  1.00  0.00     0.159 C 
HETATM   38  HN  UNL     1      12.802  -1.728 -21.181  1.00  0.00     0.171 HD
ENDBRANCH  33  36
ENDBRANCH  31  33
ENDBRANCH  23  26
ENDBRANCH  12  14
ENDBRANCH   9  12
ENDBRANCH   5   8
TORSDOF 6
ENDMDL
