MODEL 1
REMARK VINA RESULT:      -7.7      0.000      0.000
REMARK  8 active torsions:
REMARK  status: ('A' for Active; 'I' for Inactive)
REMARK    1  A    between atoms: C_5  and  N_9 
REMARK       I    between atoms: N_9  and  C_10 
REMARK    2  A    between atoms: C_10  and  C_12 
REMARK    3  A    between atoms: C_12  and  C_13 
REMARK    4  A    between atoms: C_12  and  N_22 
REMARK    5  A    between atoms: C_13  and  C_14 
REMARK    6  A    between atoms: C_14  and  C_16 
REMARK    7  A    between atoms: C_25  and  C_26 
REMARK    8  A    between atoms: C_26  and  C_27 
ROOT
HETATM    1  C   UNL     1      12.039 -16.069 -21.448  1.00  0.00     0.048 C 
HETATM    2  C   UNL     1      12.687 -14.730 -21.261  1.00  0.00    -0.061 A 
HETATM    3  C   UNL     1      14.074 -14.606 -21.238  1.00  0.00     0.009 A 
HETATM    4  C   UNL     1      14.668 -13.355 -21.056  1.00  0.00     0.030 A 
HETATM    5  C   UNL     1      13.904 -12.194 -20.897  1.00  0.00     0.040 A 
HETATM    6  C   UNL     1      12.495 -12.308 -20.916  1.00  0.00    -0.035 A 
HETATM    7  C   UNL     1      11.535 -11.153 -20.802  1.00  0.00     0.050 C 
HETATM    8  C   UNL     1      11.909 -13.579 -21.118  1.00  0.00     0.015 A 
ENDROOT
BRANCH   5   9
HETATM    9  N   UNL     1      14.530 -10.937 -20.685  1.00  0.00    -0.325 N 
HETATM   10  C   UNL     1      14.575 -10.224 -19.484  1.00  0.00     0.247 C 
HETATM   11  O   UNL     1      14.129 -10.623 -18.409  1.00  0.00    -0.271 OA
HETATM   12  HN  UNL     1      15.097 -10.578 -21.442  1.00  0.00     0.169 HD
BRANCH  10  13
HETATM   13  C   UNL     1      15.284  -8.878 -19.585  1.00  0.00     0.207 C 
BRANCH  13  14
HETATM   14  C   UNL     1      15.671  -8.495 -21.028  1.00  0.00     0.121 C 
BRANCH  14  15
HETATM   15  C   UNL     1      16.224  -7.083 -21.123  1.00  0.00     0.162 C 
HETATM   16  O   UNL     1      17.349  -6.800 -20.710  1.00  0.00    -0.292 OA
BRANCH  15  17
HETATM   17  C   UNL     1      15.361  -5.994 -21.696  1.00  0.00     0.010 A 
HETATM   18  C   UNL     1      15.276  -4.718 -21.130  1.00  0.00     0.015 A 
HETATM   19  C   UNL     1      14.470  -3.731 -21.709  1.00  0.00     0.001 A 
HETATM   20  C   UNL     1      13.742  -4.014 -22.866  1.00  0.00     0.000 A 
HETATM   21  C   UNL     1      13.822  -5.277 -23.443  1.00  0.00     0.001 A 
HETATM   22  C   UNL     1      14.630  -6.263 -22.864  1.00  0.00     0.015 A 
ENDBRANCH  15  17
ENDBRANCH  14  15
ENDBRANCH  13  14
BRANCH  13  23
HETATM   23  N   UNL     1      14.545  -7.762 -18.964  1.00  0.00    -0.282 N 
HETATM   24  C   UNL     1      13.312  -7.191 -19.206  1.00  0.00     0.034 A 
HETATM   25  C   UNL     1      12.314  -7.638 -20.218  1.00  0.00     0.070 C 
HETATM   26  C   UNL     1      13.153  -6.180 -18.256  1.00  0.00    -0.006 A 
HETATM   27  C   UNL     1      14.324  -6.271 -17.454  1.00  0.00     0.030 A 
HETATM   28  C   UNL     1      14.694  -5.552 -16.209  1.00  0.00     0.070 C 
HETATM   29  N   UNL     1      15.163  -7.199 -17.908  1.00  0.00    -0.302 N 
HETATM   30  HN  UNL     1      16.082  -7.436 -17.534  1.00  0.00     0.187 HD
BRANCH  26  31
HETATM   31  C   UNL     1      11.933  -5.345 -18.006  1.00  0.00     0.081 C 
BRANCH  31  32
HETATM   32  C   UNL     1      11.887  -4.144 -18.929  1.00  0.00    -0.054 A 
HETATM   33  C   UNL     1      11.043  -4.160 -20.056  1.00  0.00     0.007 A 
HETATM   34  C   UNL     1      10.808  -2.999 -20.802  1.00  0.00     0.001 A 
HETATM   35  C   UNL     1      11.410  -1.801 -20.434  1.00  0.00     0.000 A 
HETATM   36  C   UNL     1      12.275  -1.772 -19.341  1.00  0.00     0.001 A 
HETATM   37  C   UNL     1      12.515  -2.934 -18.597  1.00  0.00     0.007 A 
ENDBRANCH  31  32
ENDBRANCH  26  31
ENDBRANCH  13  23
ENDBRANCH  10  13
ENDBRANCH   5   9
TORSDOF 8
ENDMDL
MODEL 2
REMARK VINA RESULT:      -7.7      2.742      5.323
REMARK  8 active torsions:
REMARK  status: ('A' for Active; 'I' for Inactive)
REMARK    1  A    between atoms: C_5  and  N_9 
REMARK       I    between atoms: N_9  and  C_10 
REMARK    2  A    between atoms: C_10  and  C_12 
REMARK    3  A    between atoms: C_12  and  C_13 
REMARK    4  A    between atoms: C_12  and  N_22 
REMARK    5  A    between atoms: C_13  and  C_14 
REMARK    6  A    between atoms: C_14  and  C_16 
REMARK    7  A    between atoms: C_25  and  C_26 
REMARK    8  A    between atoms: C_26  and  C_27 
ROOT
HETATM    1  C   UNL     1      14.144 -12.946 -20.669  1.00  0.00     0.048 C 
HETATM    2  C   UNL     1      14.305 -11.659 -19.918  1.00  0.00    -0.061 A 
HETATM    3  C   UNL     1      13.438 -11.327 -18.879  1.00  0.00     0.009 A 
HETATM    4  C   UNL     1      13.592 -10.122 -18.189  1.00  0.00     0.030 A 
HETATM    5  C   UNL     1      14.611  -9.217 -18.508  1.00  0.00     0.040 A 
HETATM    6  C   UNL     1      15.494  -9.542 -19.562  1.00  0.00    -0.035 A 
HETATM    7  C   UNL     1      16.664  -8.699 -19.998  1.00  0.00     0.050 C 
HETATM    8  C   UNL     1      15.336 -10.774 -20.238  1.00  0.00     0.015 A 
ENDROOT
BRANCH   5   9
HETATM    9  N   UNL     1      14.730  -7.985 -17.811  1.00  0.00    -0.325 N 
HETATM   10  C   UNL     1      15.529  -7.738 -16.692  1.00  0.00     0.247 C 
HETATM   11  O   UNL     1      16.304  -8.547 -16.185  1.00  0.00    -0.271 OA
HETATM   12  HN  UNL     1      14.285  -7.180 -18.234  1.00  0.00     0.169 HD
BRANCH  10  13
HETATM   13  C   UNL     1      15.405  -6.322 -16.140  1.00  0.00     0.207 C 
BRANCH  13  14
HETATM   14  C   UNL     1      16.383  -6.025 -14.985  1.00  0.00     0.121 C 
BRANCH  14  15
HETATM   15  C   UNL     1      15.773  -5.116 -13.930  1.00  0.00     0.162 C 
HETATM   16  O   UNL     1      15.349  -5.558 -12.863  1.00  0.00    -0.292 OA
BRANCH  15  17
HETATM   17  C   UNL     1      15.646  -3.646 -14.215  1.00  0.00     0.010 A 
HETATM   18  C   UNL     1      16.713  -2.871 -14.680  1.00  0.00     0.015 A 
HETATM   19  C   UNL     1      16.544  -1.507 -14.947  1.00  0.00     0.001 A 
HETATM   20  C   UNL     1      15.299  -0.908 -14.753  1.00  0.00     0.000 A 
HETATM   21  C   UNL     1      14.227  -1.669 -14.296  1.00  0.00     0.001 A 
HETATM   22  C   UNL     1      14.398  -3.032 -14.032  1.00  0.00     0.015 A 
ENDBRANCH  15  17
ENDBRANCH  14  15
ENDBRANCH  13  14
BRANCH  13  23
HETATM   23  N   UNL     1      15.522  -5.266 -17.163  1.00  0.00    -0.282 N 
HETATM   24  C   UNL     1      14.621  -4.381 -17.720  1.00  0.00     0.034 A 
HETATM   25  C   UNL     1      13.184  -4.234 -17.350  1.00  0.00     0.070 C 
HETATM   26  C   UNL     1      15.343  -3.598 -18.623  1.00  0.00    -0.006 A 
HETATM   27  C   UNL     1      16.682  -4.056 -18.484  1.00  0.00     0.030 A 
HETATM   28  C   UNL     1      17.940  -3.541 -19.081  1.00  0.00     0.070 C 
HETATM   29  N   UNL     1      16.770  -5.075 -17.632  1.00  0.00    -0.302 N 
HETATM   30  HN  UNL     1      17.608  -5.602 -17.385  1.00  0.00     0.187 HD
BRANCH  26  31
HETATM   31  C   UNL     1      14.856  -2.407 -19.392  1.00  0.00     0.081 C 
BRANCH  31  32
HETATM   32  C   UNL     1      14.107  -2.824 -20.641  1.00  0.00    -0.054 A 
HETATM   33  C   UNL     1      14.784  -3.516 -21.663  1.00  0.00     0.007 A 
HETATM   34  C   UNL     1      14.087  -4.107 -22.723  1.00  0.00     0.001 A 
HETATM   35  C   UNL     1      12.700  -4.019 -22.779  1.00  0.00     0.000 A 
HETATM   36  C   UNL     1      12.015  -3.311 -21.795  1.00  0.00     0.001 A 
HETATM   37  C   UNL     1      12.712  -2.715 -20.736  1.00  0.00     0.007 A 
ENDBRANCH  31  32
ENDBRANCH  26  31
ENDBRANCH  13  23
ENDBRANCH  10  13
ENDBRANCH   5   9
TORSDOF 8
ENDMDL
MODEL 3
REMARK VINA RESULT:      -7.5      6.121      9.422
REMARK  8 active torsions:
REMARK  status: ('A' for Active; 'I' for Inactive)
REMARK    1  A    between atoms: C_5  and  N_9 
REMARK       I    between atoms: N_9  and  C_10 
REMARK    2  A    between atoms: C_10  and  C_12 
REMARK    3  A    between atoms: C_12  and  C_13 
REMARK    4  A    between atoms: C_12  and  N_22 
REMARK    5  A    between atoms: C_13  and  C_14 
REMARK    6  A    between atoms: C_14  and  C_16 
REMARK    7  A    between atoms: C_25  and  C_26 
REMARK    8  A    between atoms: C_26  and  C_27 
ROOT
HETATM    1  C   UNL     1       9.610  -3.723 -21.642  1.00  0.00     0.048 C 
HETATM    2  C   UNL     1      10.859  -3.207 -20.992  1.00  0.00    -0.061 A 
HETATM    3  C   UNL     1      10.792  -2.407 -19.854  1.00  0.00     0.009 A 
HETATM    4  C   UNL     1      11.961  -1.925 -19.260  1.00  0.00     0.030 A 
HETATM    5  C   UNL     1      13.226  -2.226 -19.777  1.00  0.00     0.040 A 
HETATM    6  C   UNL     1      13.306  -3.034 -20.933  1.00  0.00    -0.035 A 
HETATM    7  C   UNL     1      14.588  -3.483 -21.586  1.00  0.00     0.050 C 
HETATM    8  C   UNL     1      12.114  -3.529 -21.512  1.00  0.00     0.015 A 
ENDROOT
BRANCH   5   9
HETATM    9  N   UNL     1      14.399  -1.700 -19.173  1.00  0.00    -0.325 N 
HETATM   10  C   UNL     1      15.193  -2.332 -18.211  1.00  0.00     0.247 C 
HETATM   11  O   UNL     1      15.022  -3.477 -17.796  1.00  0.00    -0.271 OA
HETATM   12  HN  UNL     1      14.761  -0.837 -19.558  1.00  0.00     0.169 HD
BRANCH  10  13
HETATM   13  C   UNL     1      16.365  -1.489 -17.720  1.00  0.00     0.207 C 
BRANCH  13  14
HETATM   14  C   UNL     1      17.267  -2.223 -16.707  1.00  0.00     0.121 C 
BRANCH  14  15
HETATM   15  C   UNL     1      16.905  -1.896 -15.268  1.00  0.00     0.162 C 
HETATM   16  O   UNL     1      17.435  -0.963 -14.664  1.00  0.00    -0.292 OA
BRANCH  15  17
HETATM   17  C   UNL     1      15.907  -2.759 -14.549  1.00  0.00     0.010 A 
HETATM   18  C   UNL     1      14.645  -2.295 -14.163  1.00  0.00     0.015 A 
HETATM   19  C   UNL     1      13.742  -3.141 -13.509  1.00  0.00     0.001 A 
HETATM   20  C   UNL     1      14.094  -4.463 -13.238  1.00  0.00     0.000 A 
HETATM   21  C   UNL     1      15.343  -4.940 -13.623  1.00  0.00     0.001 A 
HETATM   22  C   UNL     1      16.245  -4.094 -14.278  1.00  0.00     0.015 A 
ENDBRANCH  15  17
ENDBRANCH  14  15
ENDBRANCH  13  14
BRANCH  13  23
HETATM   23  N   UNL     1      17.197  -0.929 -18.801  1.00  0.00    -0.282 N 
HETATM   24  C   UNL     1      17.945  -1.498 -19.813  1.00  0.00     0.034 A 
HETATM   25  C   UNL     1      18.063  -2.953 -20.113  1.00  0.00     0.070 C 
HETATM   26  C   UNL     1      18.485  -0.440 -20.546  1.00  0.00    -0.006 A 
HETATM   27  C   UNL     1      17.948   0.721 -19.925  1.00  0.00     0.030 A 
HETATM   28  C   UNL     1      18.046   2.151 -20.314  1.00  0.00     0.070 C 
HETATM   29  N   UNL     1      17.205   0.416 -18.864  1.00  0.00    -0.302 N 
HETATM   30  HN  UNL     1      16.739   1.065 -18.230  1.00  0.00     0.187 HD
BRANCH  26  31
HETATM   31  C   UNL     1      19.267  -0.519 -21.822  1.00  0.00     0.081 C 
BRANCH  31  32
HETATM   32  C   UNL     1      20.688  -0.981 -21.571  1.00  0.00    -0.054 A 
HETATM   33  C   UNL     1      21.285  -0.757 -20.316  1.00  0.00     0.007 A 
HETATM   34  C   UNL     1      22.502  -1.357 -19.974  1.00  0.00     0.001 A 
HETATM   35  C   UNL     1      23.145  -2.193 -20.881  1.00  0.00     0.000 A 
HETATM   36  C   UNL     1      22.587  -2.401 -22.141  1.00  0.00     0.001 A 
HETATM   37  C   UNL     1      21.371  -1.797 -22.485  1.00  0.00     0.007 A 
ENDBRANCH  31  32
ENDBRANCH  26  31
ENDBRANCH  13  23
ENDBRANCH  10  13
ENDBRANCH   5   9
TORSDOF 8
ENDMDL
MODEL 4
REMARK VINA RESULT:      -7.5      2.644      3.623
REMARK  8 active torsions:
REMARK  status: ('A' for Active; 'I' for Inactive)
REMARK    1  A    between atoms: C_5  and  N_9 
REMARK       I    between atoms: N_9  and  C_10 
REMARK    2  A    between atoms: C_10  and  C_12 
REMARK    3  A    between atoms: C_12  and  C_13 
REMARK    4  A    between atoms: C_12  and  N_22 
REMARK    5  A    between atoms: C_13  and  C_14 
REMARK    6  A    between atoms: C_14  and  C_16 
REMARK    7  A    between atoms: C_25  and  C_26 
REMARK    8  A    between atoms: C_26  and  C_27 
ROOT
HETATM    1  C   UNL     1      11.930 -15.136 -21.310  1.00  0.00     0.048 C 
HETATM    2  C   UNL     1      12.833 -13.990 -20.964  1.00  0.00    -0.061 A 
HETATM    3  C   UNL     1      14.192 -14.037 -21.265  1.00  0.00     0.009 A 
HETATM    4  C   UNL     1      15.027 -12.967 -20.933  1.00  0.00     0.030 A 
HETATM    5  C   UNL     1      14.535 -11.821 -20.297  1.00  0.00     0.040 A 
HETATM    6  C   UNL     1      13.158 -11.764 -19.984  1.00  0.00    -0.035 A 
HETATM    7  C   UNL     1      12.468 -10.588 -19.342  1.00  0.00     0.050 C 
HETATM    8  C   UNL     1      12.324 -12.847 -20.343  1.00  0.00     0.015 A 
ENDROOT
BRANCH   5   9
HETATM    9  N   UNL     1      15.408 -10.758 -19.943  1.00  0.00    -0.325 N 
HETATM   10  C   UNL     1      15.673  -9.614 -20.701  1.00  0.00     0.247 C 
HETATM   11  O   UNL     1      15.127  -9.330 -21.766  1.00  0.00    -0.271 OA
HETATM   12  HN  UNL     1      15.784 -10.773 -19.004  1.00  0.00     0.169 HD
BRANCH  10  13
HETATM   13  C   UNL     1      16.696  -8.674 -20.071  1.00  0.00     0.207 C 
BRANCH  13  14
HETATM   14  C   UNL     1      16.967  -7.410 -20.912  1.00  0.00     0.121 C 
BRANCH  14  15
HETATM   15  C   UNL     1      18.010  -6.506 -20.276  1.00  0.00     0.162 C 
HETATM   16  O   UNL     1      19.216  -6.711 -20.418  1.00  0.00    -0.292 OA
BRANCH  15  17
HETATM   17  C   UNL     1      17.559  -5.358 -19.418  1.00  0.00     0.010 A 
HETATM   18  C   UNL     1      18.180  -5.027 -18.209  1.00  0.00     0.015 A 
HETATM   19  C   UNL     1      17.735  -3.938 -17.451  1.00  0.00     0.001 A 
HETATM   20  C   UNL     1      16.662  -3.166 -17.900  1.00  0.00     0.000 A 
HETATM   21  C   UNL     1      16.039  -3.480 -19.104  1.00  0.00     0.001 A 
HETATM   22  C   UNL     1      16.487  -4.568 -19.862  1.00  0.00     0.015 A 
ENDBRANCH  15  17
ENDBRANCH  14  15
ENDBRANCH  13  14
BRANCH  13  23
HETATM   23  N   UNL     1      16.377  -8.281 -18.685  1.00  0.00    -0.282 N 
HETATM   24  C   UNL     1      15.294  -7.652 -18.104  1.00  0.00     0.034 A 
HETATM   25  C   UNL     1      14.046  -7.222 -18.796  1.00  0.00     0.070 C 
HETATM   26  C   UNL     1      15.563  -7.588 -16.735  1.00  0.00    -0.006 A 
HETATM   27  C   UNL     1      16.807  -8.263 -16.596  1.00  0.00     0.030 A 
HETATM   28  C   UNL     1      17.566  -8.637 -15.375  1.00  0.00     0.070 C 
HETATM   29  N   UNL     1      17.298  -8.644 -17.773  1.00  0.00    -0.302 N 
HETATM   30  HN  UNL     1      18.187  -9.113 -17.948  1.00  0.00     0.187 HD
BRANCH  26  31
HETATM   31  C   UNL     1      14.649  -7.115 -15.646  1.00  0.00     0.081 C 
BRANCH  31  32
HETATM   32  C   UNL     1      14.812  -5.631 -15.393  1.00  0.00    -0.054 A 
HETATM   33  C   UNL     1      13.826  -4.732 -15.844  1.00  0.00     0.007 A 
HETATM   34  C   UNL     1      13.829  -3.391 -15.442  1.00  0.00     0.001 A 
HETATM   35  C   UNL     1      14.816  -2.925 -14.580  1.00  0.00     0.000 A 
HETATM   36  C   UNL     1      15.819  -3.791 -14.149  1.00  0.00     0.001 A 
HETATM   37  C   UNL     1      15.820  -5.132 -14.555  1.00  0.00     0.007 A 
ENDBRANCH  31  32
ENDBRANCH  26  31
ENDBRANCH  13  23
ENDBRANCH  10  13
ENDBRANCH   5   9
TORSDOF 8
ENDMDL
MODEL 5
REMARK VINA RESULT:      -7.5      4.761      7.984
REMARK  8 active torsions:
REMARK  status: ('A' for Active; 'I' for Inactive)
REMARK    1  A    between atoms: C_5  and  N_9 
REMARK       I    between atoms: N_9  and  C_10 
REMARK    2  A    between atoms: C_10  and  C_12 
REMARK    3  A    between atoms: C_12  and  C_13 
REMARK    4  A    between atoms: C_12  and  N_22 
REMARK    5  A    between atoms: C_13  and  C_14 
REMARK    6  A    between atoms: C_14  and  C_16 
REMARK    7  A    between atoms: C_25  and  C_26 
REMARK    8  A    between atoms: C_26  and  C_27 
ROOT
HETATM    1  C   UNL     1       7.712  -3.713 -22.257  1.00  0.00     0.048 C 
HETATM    2  C   UNL     1       8.930  -3.904 -21.405  1.00  0.00    -0.061 A 
HETATM    3  C   UNL     1       9.388  -5.182 -21.090  1.00  0.00     0.009 A 
HETATM    4  C   UNL     1      10.520  -5.349 -20.290  1.00  0.00     0.030 A 
HETATM    5  C   UNL     1      11.231  -4.255 -19.783  1.00  0.00     0.040 A 
HETATM    6  C   UNL     1      10.774  -2.954 -20.094  1.00  0.00    -0.035 A 
HETATM    7  C   UNL     1      11.450  -1.678 -19.663  1.00  0.00     0.050 C 
HETATM    8  C   UNL     1       9.637  -2.802 -20.920  1.00  0.00     0.015 A 
ENDROOT
BRANCH   5   9
HETATM    9  N   UNL     1      12.362  -4.451 -18.947  1.00  0.00    -0.325 N 
HETATM   10  C   UNL     1      13.676  -4.676 -19.368  1.00  0.00     0.247 C 
HETATM   11  O   UNL     1      14.054  -4.671 -20.538  1.00  0.00    -0.271 OA
HETATM   12  HN  UNL     1      12.227  -4.297 -17.957  1.00  0.00     0.169 HD
BRANCH  10  13
HETATM   13  C   UNL     1      14.665  -4.896 -18.228  1.00  0.00     0.207 C 
BRANCH  13  14
HETATM   14  C   UNL     1      14.596  -6.312 -17.620  1.00  0.00     0.121 C 
BRANCH  14  15
HETATM   15  C   UNL     1      15.166  -6.365 -16.212  1.00  0.00     0.162 C 
HETATM   16  O   UNL     1      16.055  -7.158 -15.904  1.00  0.00    -0.292 OA
BRANCH  15  17
HETATM   17  C   UNL     1      14.600  -5.455 -15.158  1.00  0.00     0.010 A 
HETATM   18  C   UNL     1      13.302  -5.592 -14.658  1.00  0.00     0.015 A 
HETATM   19  C   UNL     1      12.823  -4.731 -13.664  1.00  0.00     0.001 A 
HETATM   20  C   UNL     1      13.645  -3.723 -13.159  1.00  0.00     0.000 A 
HETATM   21  C   UNL     1      14.943  -3.579 -13.643  1.00  0.00     0.001 A 
HETATM   22  C   UNL     1      15.420  -4.443 -14.635  1.00  0.00     0.015 A 
ENDBRANCH  15  17
ENDBRANCH  14  15
ENDBRANCH  13  14
BRANCH  13  23
HETATM   23  N   UNL     1      16.063  -4.580 -18.576  1.00  0.00    -0.282 N 
HETATM   24  C   UNL     1      16.888  -3.507 -18.307  1.00  0.00     0.034 A 
HETATM   25  C   UNL     1      16.545  -2.316 -17.478  1.00  0.00     0.070 C 
HETATM   26  C   UNL     1      18.124  -3.805 -18.883  1.00  0.00    -0.006 A 
HETATM   27  C   UNL     1      17.949  -5.109 -19.421  1.00  0.00     0.030 A 
HETATM   28  C   UNL     1      18.931  -6.027 -20.052  1.00  0.00     0.070 C 
HETATM   29  N   UNL     1      16.703  -5.549 -19.259  1.00  0.00    -0.302 N 
HETATM   30  HN  UNL     1      16.314  -6.434 -19.584  1.00  0.00     0.187 HD
BRANCH  26  31
HETATM   31  C   UNL     1      19.397  -3.023 -18.767  1.00  0.00     0.081 C 
BRANCH  31  32
HETATM   32  C   UNL     1      19.842  -2.488 -20.112  1.00  0.00    -0.054 A 
HETATM   33  C   UNL     1      19.028  -1.571 -20.803  1.00  0.00     0.007 A 
HETATM   34  C   UNL     1      19.499  -0.890 -21.932  1.00  0.00     0.001 A 
HETATM   35  C   UNL     1      20.794  -1.113 -22.389  1.00  0.00     0.000 A 
HETATM   36  C   UNL     1      21.604  -2.041 -21.738  1.00  0.00     0.001 A 
HETATM   37  C   UNL     1      21.132  -2.726 -20.611  1.00  0.00     0.007 A 
ENDBRANCH  31  32
ENDBRANCH  26  31
ENDBRANCH  13  23
ENDBRANCH  10  13
ENDBRANCH   5   9
TORSDOF 8
ENDMDL
MODEL 6
REMARK VINA RESULT:      -7.5      4.281      7.031
REMARK  8 active torsions:
REMARK  status: ('A' for Active; 'I' for Inactive)
REMARK    1  A    between atoms: C_5  and  N_9 
REMARK       I    between atoms: N_9  and  C_10 
REMARK    2  A    between atoms: C_10  and  C_12 
REMARK    3  A    between atoms: C_12  and  C_13 
REMARK    4  A    between atoms: C_12  and  N_22 
REMARK    5  A    between atoms: C_13  and  C_14 
REMARK    6  A    between atoms: C_14  and  C_16 
REMARK    7  A    between atoms: C_25  and  C_26 
REMARK    8  A    between atoms: C_26  and  C_27 
ROOT
HETATM    1  C   UNL     1      14.257  -6.929 -29.018  1.00  0.00     0.048 C 
HETATM    2  C   UNL     1      14.117  -6.368 -27.634  1.00  0.00    -0.061 A 
HETATM    3  C   UNL     1      13.503  -5.136 -27.422  1.00  0.00     0.009 A 
HETATM    4  C   UNL     1      13.384  -4.619 -26.130  1.00  0.00     0.030 A 
HETATM    5  C   UNL     1      13.867  -5.312 -25.014  1.00  0.00     0.040 A 
HETATM    6  C   UNL     1      14.495  -6.561 -25.217  1.00  0.00    -0.035 A 
HETATM    7  C   UNL     1      15.028  -7.447 -24.121  1.00  0.00     0.050 C 
HETATM    8  C   UNL     1      14.592  -7.079 -26.530  1.00  0.00     0.015 A 
ENDROOT
BRANCH   5   9
HETATM    9  N   UNL     1      13.761  -4.753 -23.713  1.00  0.00    -0.325 N 
HETATM   10  C   UNL     1      12.704  -4.931 -22.816  1.00  0.00     0.247 C 
HETATM   11  O   UNL     1      11.733  -5.663 -23.005  1.00  0.00    -0.271 OA
HETATM   12  HN  UNL     1      14.579  -4.276 -23.355  1.00  0.00     0.169 HD
BRANCH  10  13
HETATM   13  C   UNL     1      12.859  -4.160 -21.510  1.00  0.00     0.207 C 
BRANCH  13  14
HETATM   14  C   UNL     1      11.771  -4.491 -20.468  1.00  0.00     0.121 C 
BRANCH  14  15
HETATM   15  C   UNL     1      11.884  -3.631 -19.220  1.00  0.00     0.162 C 
HETATM   16  O   UNL     1      11.402  -2.500 -19.170  1.00  0.00    -0.292 OA
BRANCH  15  17
HETATM   17  C   UNL     1      12.640  -4.158 -18.033  1.00  0.00     0.010 A 
HETATM   18  C   UNL     1      12.460  -5.452 -17.536  1.00  0.00     0.015 A 
HETATM   19  C   UNL     1      13.199  -5.905 -16.436  1.00  0.00     0.001 A 
HETATM   20  C   UNL     1      14.129  -5.064 -15.826  1.00  0.00     0.000 A 
HETATM   21  C   UNL     1      14.323  -3.775 -16.315  1.00  0.00     0.001 A 
HETATM   22  C   UNL     1      13.585  -3.324 -17.415  1.00  0.00     0.015 A 
ENDBRANCH  15  17
ENDBRANCH  14  15
ENDBRANCH  13  14
BRANCH  13  23
HETATM   23  N   UNL     1      14.190  -4.294 -20.887  1.00  0.00    -0.282 N 
HETATM   24  C   UNL     1      14.905  -5.371 -20.402  1.00  0.00     0.034 A 
HETATM   25  C   UNL     1      14.483  -6.800 -20.438  1.00  0.00     0.070 C 
HETATM   26  C   UNL     1      16.129  -4.865 -19.963  1.00  0.00    -0.006 A 
HETATM   27  C   UNL     1      16.069  -3.482 -20.287  1.00  0.00     0.030 A 
HETATM   28  C   UNL     1      17.106  -2.425 -20.185  1.00  0.00     0.070 C 
HETATM   29  N   UNL     1      14.891  -3.147 -20.810  1.00  0.00    -0.302 N 
HETATM   30  HN  UNL     1      14.584  -2.217 -21.094  1.00  0.00     0.187 HD
BRANCH  26  31
HETATM   31  C   UNL     1      17.313  -5.640 -19.468  1.00  0.00     0.081 C 
BRANCH  31  32
HETATM   32  C   UNL     1      17.212  -5.915 -17.982  1.00  0.00    -0.054 A 
HETATM   33  C   UNL     1      16.695  -7.145 -17.532  1.00  0.00     0.007 A 
HETATM   34  C   UNL     1      16.790  -7.522 -16.187  1.00  0.00     0.001 A 
HETATM   35  C   UNL     1      17.405  -6.678 -15.269  1.00  0.00     0.000 A 
HETATM   36  C   UNL     1      17.893  -5.442 -15.688  1.00  0.00     0.001 A 
HETATM   37  C   UNL     1      17.795  -5.061 -17.033  1.00  0.00     0.007 A 
ENDBRANCH  31  32
ENDBRANCH  26  31
ENDBRANCH  13  23
ENDBRANCH  10  13
ENDBRANCH   5   9
TORSDOF 8
ENDMDL
MODEL 7
REMARK VINA RESULT:      -7.4      4.306      6.739
REMARK  8 active torsions:
REMARK  status: ('A' for Active; 'I' for Inactive)
REMARK    1  A    between atoms: C_5  and  N_9 
REMARK       I    between atoms: N_9  and  C_10 
REMARK    2  A    between atoms: C_10  and  C_12 
REMARK    3  A    between atoms: C_12  and  C_13 
REMARK    4  A    between atoms: C_12  and  N_22 
REMARK    5  A    between atoms: C_13  and  C_14 
REMARK    6  A    between atoms: C_14  and  C_16 
REMARK    7  A    between atoms: C_25  and  C_26 
REMARK    8  A    between atoms: C_26  and  C_27 
ROOT
HETATM    1  C   UNL     1      13.610  -5.608 -25.694  1.00  0.00     0.048 C 
HETATM    2  C   UNL     1      14.089  -5.632 -24.274  1.00  0.00    -0.061 A 
HETATM    3  C   UNL     1      14.730  -6.756 -23.756  1.00  0.00     0.009 A 
HETATM    4  C   UNL     1      15.165  -6.772 -22.429  1.00  0.00     0.030 A 
HETATM    5  C   UNL     1      14.982  -5.673 -21.582  1.00  0.00     0.040 A 
HETATM    6  C   UNL     1      14.330  -4.529 -22.095  1.00  0.00    -0.035 A 
HETATM    7  C   UNL     1      14.094  -3.254 -21.328  1.00  0.00     0.050 C 
HETATM    8  C   UNL     1      13.911  -4.522 -23.445  1.00  0.00     0.015 A 
ENDROOT
BRANCH   5   9
HETATM    9  N   UNL     1      15.407  -5.724 -20.228  1.00  0.00    -0.325 N 
HETATM   10  C   UNL     1      14.619  -6.050 -19.121  1.00  0.00     0.247 C 
HETATM   11  O   UNL     1      13.444  -6.411 -19.173  1.00  0.00    -0.271 OA
HETATM   12  HN  UNL     1      16.401  -5.628 -20.060  1.00  0.00     0.169 HD
BRANCH  10  13
HETATM   13  C   UNL     1      15.354  -5.970 -17.787  1.00  0.00     0.207 C 
BRANCH  13  14
HETATM   14  C   UNL     1      16.872  -5.744 -17.936  1.00  0.00     0.121 C 
BRANCH  14  15
HETATM   15  C   UNL     1      17.580  -5.674 -16.593  1.00  0.00     0.162 C 
HETATM   16  O   UNL     1      17.479  -6.575 -15.762  1.00  0.00    -0.292 OA
BRANCH  15  17
HETATM   17  C   UNL     1      18.391  -4.454 -16.256  1.00  0.00     0.010 A 
HETATM   18  C   UNL     1      18.890  -4.209 -14.972  1.00  0.00     0.015 A 
HETATM   19  C   UNL     1      19.654  -3.066 -14.708  1.00  0.00     0.001 A 
HETATM   20  C   UNL     1      19.929  -2.158 -15.731  1.00  0.00     0.000 A 
HETATM   21  C   UNL     1      19.445  -2.393 -17.015  1.00  0.00     0.001 A 
HETATM   22  C   UNL     1      18.682  -3.537 -17.278  1.00  0.00     0.015 A 
ENDBRANCH  15  17
ENDBRANCH  14  15
ENDBRANCH  13  14
BRANCH  13  23
HETATM   23  N   UNL     1      14.799  -4.971 -16.855  1.00  0.00    -0.282 N 
HETATM   24  C   UNL     1      14.682  -3.596 -16.897  1.00  0.00     0.034 A 
HETATM   25  C   UNL     1      15.084  -2.711 -18.026  1.00  0.00     0.070 C 
HETATM   26  C   UNL     1      14.032  -3.219 -15.721  1.00  0.00    -0.006 A 
HETATM   27  C   UNL     1      13.749  -4.452 -15.072  1.00  0.00     0.030 A 
HETATM   28  C   UNL     1      12.966  -4.732 -13.842  1.00  0.00     0.070 C 
HETATM   29  N   UNL     1      14.241  -5.490 -15.744  1.00  0.00    -0.302 N 
HETATM   30  HN  UNL     1      14.203  -6.474 -15.475  1.00  0.00     0.187 HD
BRANCH  26  31
HETATM   31  C   UNL     1      13.551  -1.851 -15.342  1.00  0.00     0.081 C 
BRANCH  31  32
HETATM   32  C   UNL     1      14.708  -0.895 -15.141  1.00  0.00    -0.054 A 
HETATM   33  C   UNL     1      15.815  -1.290 -14.366  1.00  0.00     0.007 A 
HETATM   34  C   UNL     1      16.990  -0.528 -14.338  1.00  0.00     0.001 A 
HETATM   35  C   UNL     1      17.080   0.640 -15.087  1.00  0.00     0.000 A 
HETATM   36  C   UNL     1      15.983   1.065 -15.834  1.00  0.00     0.001 A 
HETATM   37  C   UNL     1      14.805   0.307 -15.859  1.00  0.00     0.007 A 
ENDBRANCH  31  32
ENDBRANCH  26  31
ENDBRANCH  13  23
ENDBRANCH  10  13
ENDBRANCH   5   9
TORSDOF 8
ENDMDL
MODEL 8
REMARK VINA RESULT:      -7.3      3.061      7.293
REMARK  8 active torsions:
REMARK  status: ('A' for Active; 'I' for Inactive)
REMARK    1  A    between atoms: C_5  and  N_9 
REMARK       I    between atoms: N_9  and  C_10 
REMARK    2  A    between atoms: C_10  and  C_12 
REMARK    3  A    between atoms: C_12  and  C_13 
REMARK    4  A    between atoms: C_12  and  N_22 
REMARK    5  A    between atoms: C_13  and  C_14 
REMARK    6  A    between atoms: C_14  and  C_16 
REMARK    7  A    between atoms: C_25  and  C_26 
REMARK    8  A    between atoms: C_26  and  C_27 
ROOT
HETATM    1  C   UNL     1      11.152   0.476 -18.319  1.00  0.00     0.048 C 
HETATM    2  C   UNL     1      11.677  -0.855 -18.767  1.00  0.00    -0.061 A 
HETATM    3  C   UNL     1      11.282  -1.404 -19.985  1.00  0.00     0.009 A 
HETATM    4  C   UNL     1      11.771  -2.648 -20.391  1.00  0.00     0.030 A 
HETATM    5  C   UNL     1      12.667  -3.378 -19.602  1.00  0.00     0.040 A 
HETATM    6  C   UNL     1      13.072  -2.833 -18.363  1.00  0.00    -0.035 A 
HETATM    7  C   UNL     1      14.060  -3.471 -17.421  1.00  0.00     0.050 C 
HETATM    8  C   UNL     1      12.582  -1.565 -17.975  1.00  0.00     0.015 A 
ENDROOT
BRANCH   5   9
HETATM    9  N   UNL     1      13.128  -4.655 -20.022  1.00  0.00    -0.325 N 
HETATM   10  C   UNL     1      14.096  -4.907 -20.999  1.00  0.00     0.247 C 
HETATM   11  O   UNL     1      14.742  -4.046 -21.593  1.00  0.00    -0.271 OA
HETATM   12  HN  UNL     1      12.813  -5.451 -19.485  1.00  0.00     0.169 HD
BRANCH  10  13
HETATM   13  C   UNL     1      14.342  -6.389 -21.261  1.00  0.00     0.207 C 
BRANCH  13  14
HETATM   14  C   UNL     1      15.399  -6.652 -22.353  1.00  0.00     0.121 C 
BRANCH  14  15
HETATM   15  C   UNL     1      14.815  -7.361 -23.564  1.00  0.00     0.162 C 
HETATM   16  O   UNL     1      14.616  -8.575 -23.568  1.00  0.00    -0.292 OA
BRANCH  15  17
HETATM   17  C   UNL     1      14.513  -6.565 -24.803  1.00  0.00     0.010 A 
HETATM   18  C   UNL     1      13.739  -5.401 -24.785  1.00  0.00     0.015 A 
HETATM   19  C   UNL     1      13.497  -4.684 -25.962  1.00  0.00     0.001 A 
HETATM   20  C   UNL     1      14.034  -5.127 -27.172  1.00  0.00     0.000 A 
HETATM   21  C   UNL     1      14.812  -6.281 -27.204  1.00  0.00     0.001 A 
HETATM   22  C   UNL     1      15.054  -6.995 -26.025  1.00  0.00     0.015 A 
ENDBRANCH  15  17
ENDBRANCH  14  15
ENDBRANCH  13  14
BRANCH  13  23
HETATM   23  N   UNL     1      14.683  -7.164 -20.053  1.00  0.00    -0.282 N 
HETATM   24  C   UNL     1      15.609  -6.989 -19.045  1.00  0.00     0.034 A 
HETATM   25  C   UNL     1      16.545  -5.839 -18.895  1.00  0.00     0.070 C 
HETATM   26  C   UNL     1      15.428  -8.049 -18.154  1.00  0.00    -0.006 A 
HETATM   27  C   UNL     1      14.325  -8.768 -18.692  1.00  0.00     0.030 A 
HETATM   28  C   UNL     1      13.572  -9.923 -18.143  1.00  0.00     0.070 C 
HETATM   29  N   UNL     1      13.910  -8.247 -19.844  1.00  0.00    -0.302 N 
HETATM   30  HN  UNL     1      13.162  -8.595 -20.445  1.00  0.00     0.187 HD
BRANCH  26  31
HETATM   31  C   UNL     1      16.096  -8.252 -16.828  1.00  0.00     0.081 C 
BRANCH  31  32
HETATM   32  C   UNL     1      15.573  -7.280 -15.791  1.00  0.00    -0.054 A 
HETATM   33  C   UNL     1      16.449  -6.351 -15.198  1.00  0.00     0.007 A 
HETATM   34  C   UNL     1      15.967  -5.301 -14.407  1.00  0.00     0.001 A 
HETATM   35  C   UNL     1      14.600  -5.159 -14.197  1.00  0.00     0.000 A 
HETATM   36  C   UNL     1      13.718  -6.087 -14.748  1.00  0.00     0.001 A 
HETATM   37  C   UNL     1      14.200  -7.141 -15.535  1.00  0.00     0.007 A 
ENDBRANCH  31  32
ENDBRANCH  26  31
ENDBRANCH  13  23
ENDBRANCH  10  13
ENDBRANCH   5   9
TORSDOF 8
ENDMDL
MODEL 9
REMARK VINA RESULT:      -7.3      3.324      5.739
REMARK  8 active torsions:
REMARK  status: ('A' for Active; 'I' for Inactive)
REMARK    1  A    between atoms: C_5  and  N_9 
REMARK       I    between atoms: N_9  and  C_10 
REMARK    2  A    between atoms: C_10  and  C_12 
REMARK    3  A    between atoms: C_12  and  C_13 
REMARK    4  A    between atoms: C_12  and  N_22 
REMARK    5  A    between atoms: C_13  and  C_14 
REMARK    6  A    between atoms: C_14  and  C_16 
REMARK    7  A    between atoms: C_25  and  C_26 
REMARK    8  A    between atoms: C_26  and  C_27 
ROOT
HETATM    1  C   UNL     1      14.128 -12.892 -20.792  1.00  0.00     0.048 C 
HETATM    2  C   UNL     1      14.305 -11.600 -20.052  1.00  0.00    -0.061 A 
HETATM    3  C   UNL     1      13.471 -11.268 -18.987  1.00  0.00     0.009 A 
HETATM    4  C   UNL     1      13.639 -10.059 -18.308  1.00  0.00     0.030 A 
HETATM    5  C   UNL     1      14.641  -9.149 -18.664  1.00  0.00     0.040 A 
HETATM    6  C   UNL     1      15.492  -9.474 -19.744  1.00  0.00    -0.035 A 
HETATM    7  C   UNL     1      16.641  -8.625 -20.223  1.00  0.00     0.050 C 
HETATM    8  C   UNL     1      15.319 -10.710 -20.410  1.00  0.00     0.015 A 
ENDROOT
BRANCH   5   9
HETATM    9  N   UNL     1      14.774  -7.913 -17.977  1.00  0.00    -0.325 N 
HETATM   10  C   UNL     1      15.622  -7.650 -16.898  1.00  0.00     0.247 C 
HETATM   11  O   UNL     1      16.434  -8.446 -16.427  1.00  0.00    -0.271 OA
HETATM   12  HN  UNL     1      14.297  -7.117 -18.380  1.00  0.00     0.169 HD
BRANCH  10  13
HETATM   13  C   UNL     1      15.503  -6.234 -16.344  1.00  0.00     0.207 C 
BRANCH  13  14
HETATM   14  C   UNL     1      16.359  -5.994 -15.084  1.00  0.00     0.121 C 
BRANCH  14  15
HETATM   15  C   UNL     1      15.687  -5.049 -14.101  1.00  0.00     0.162 C 
HETATM   16  O   UNL     1      15.018  -5.468 -13.157  1.00  0.00    -0.292 OA
BRANCH  15  17
HETATM   17  C   UNL     1      15.808  -3.566 -14.311  1.00  0.00     0.010 A 
HETATM   18  C   UNL     1      14.724  -2.693 -14.182  1.00  0.00     0.015 A 
HETATM   19  C   UNL     1      14.887  -1.316 -14.373  1.00  0.00     0.001 A 
HETATM   20  C   UNL     1      16.144  -0.800 -14.691  1.00  0.00     0.000 A 
HETATM   21  C   UNL     1      17.233  -1.657 -14.816  1.00  0.00     0.001 A 
HETATM   22  C   UNL     1      17.068  -3.033 -14.624  1.00  0.00     0.015 A 
ENDBRANCH  15  17
ENDBRANCH  14  15
ENDBRANCH  13  14
BRANCH  13  23
HETATM   23  N   UNL     1      15.783  -5.177 -17.334  1.00  0.00    -0.282 N 
HETATM   24  C   UNL     1      15.011  -4.188 -17.909  1.00  0.00     0.034 A 
HETATM   25  C   UNL     1      13.583  -3.891 -17.600  1.00  0.00     0.070 C 
HETATM   26  C   UNL     1      15.856  -3.470 -18.757  1.00  0.00    -0.006 A 
HETATM   27  C   UNL     1      17.129  -4.075 -18.570  1.00  0.00     0.030 A 
HETATM   28  C   UNL     1      18.462  -3.690 -19.097  1.00  0.00     0.070 C 
HETATM   29  N   UNL     1      17.065  -5.115 -17.741  1.00  0.00    -0.302 N 
HETATM   30  HN  UNL     1      17.829  -5.735 -17.470  1.00  0.00     0.187 HD
BRANCH  26  31
HETATM   31  C   UNL     1      15.538  -2.218 -19.517  1.00  0.00     0.081 C 
BRANCH  31  32
HETATM   32  C   UNL     1      15.660  -0.991 -18.637  1.00  0.00    -0.054 A 
HETATM   33  C   UNL     1      16.896  -0.323 -18.537  1.00  0.00     0.007 A 
HETATM   34  C   UNL     1      16.995   0.928 -17.916  1.00  0.00     0.001 A 
HETATM   35  C   UNL     1      15.861   1.534 -17.387  1.00  0.00     0.000 A 
HETATM   36  C   UNL     1      14.636   0.874 -17.446  1.00  0.00     0.001 A 
HETATM   37  C   UNL     1      14.536  -0.380 -18.062  1.00  0.00     0.007 A 
ENDBRANCH  31  32
ENDBRANCH  26  31
ENDBRANCH  13  23
ENDBRANCH  10  13
ENDBRANCH   5   9
TORSDOF 8
ENDMDL
