MODEL 1
REMARK VINA RESULT:      -7.9      0.000      0.000
REMARK  6 active torsions:
REMARK  status: ('A' for Active; 'I' for Inactive)
REMARK    1  A    between atoms: C_7  and  N_8 
REMARK       I    between atoms: N_8  and  C_9 
REMARK    2  A    between atoms: C_9  and  C_11 
REMARK    3  A    between atoms: C_11  and  N_13 
REMARK    4  A    between atoms: C_22  and  C_23 
REMARK    5  A    between atoms: C_28  and  S_30 
REMARK    6  A    between atoms: S_30  and  N_33 
ROOT
HETATM    1  C   UNL     1      19.239  -0.722 -22.057  1.00  0.00     0.050 C 
HETATM    2  C   UNL     1      20.532  -1.331 -21.583  1.00  0.00    -0.035 A 
HETATM    3  C   UNL     1      21.519  -1.600 -22.556  1.00  0.00     0.009 A 
HETATM    4  C   UNL     1      22.736  -2.182 -22.207  1.00  0.00     0.001 A 
HETATM    5  C   UNL     1      22.992  -2.481 -20.879  1.00  0.00     0.002 A 
HETATM    6  C   UNL     1      22.027  -2.211 -19.906  1.00  0.00     0.030 A 
HETATM    7  C   UNL     1      20.778  -1.661 -20.234  1.00  0.00     0.040 A 
ENDROOT
BRANCH   7   8
HETATM    8  N   UNL     1      19.783  -1.433 -19.240  1.00  0.00    -0.325 N 
HETATM    9  C   UNL     1      18.810  -2.342 -18.844  1.00  0.00     0.246 C 
HETATM   10  O   UNL     1      18.672  -3.466 -19.336  1.00  0.00    -0.271 OA
HETATM   11  HN  UNL     1      19.675  -0.487 -18.904  1.00  0.00     0.169 HD
BRANCH   9  12
HETATM   12  C   UNL     1      17.847  -1.910 -17.704  1.00  0.00     0.199 C 
HETATM   13  C   UNL     1      17.616  -0.402 -17.839  1.00  0.00     0.044 C 
BRANCH  12  14
HETATM   14  N   UNL     1      16.608  -2.699 -17.562  1.00  0.00    -0.243 N 
HETATM   15  C   UNL     1      16.151  -2.932 -16.272  1.00  0.00     0.269 C 
HETATM   16  O   UNL     1      16.762  -2.596 -15.261  1.00  0.00    -0.266 OA
HETATM   17  C   UNL     1      14.923  -3.755 -16.162  1.00  0.00     0.020 C 
HETATM   18  C   UNL     1      14.664  -4.340 -14.800  1.00  0.00     0.045 C 
HETATM   19  C   UNL     1      14.145  -3.988 -17.238  1.00  0.00    -0.017 C 
HETATM   20  C   UNL     1      13.265  -4.931 -14.665  1.00  0.00     0.005 C 
HETATM   21  C   UNL     1      12.943  -5.787 -15.882  1.00  0.00     0.005 C 
HETATM   22  C   UNL     1      12.976  -4.937 -17.155  1.00  0.00     0.042 C 
HETATM   23  C   UNL     1      14.593  -3.338 -18.519  1.00  0.00     0.065 C 
HETATM   24  N   UNL     1      15.771  -2.800 -18.661  1.00  0.00    -0.294 N 
HETATM   25  HN  UNL     1      16.075  -2.456 -19.572  1.00  0.00     0.187 HD
BRANCH  23  26
HETATM   26  C   UNL     1      13.667  -3.303 -19.717  1.00  0.00    -0.006 A 
HETATM   27  C   UNL     1      12.640  -2.352 -19.763  1.00  0.00     0.014 A 
HETATM   28  C   UNL     1      11.754  -2.295 -20.850  1.00  0.00     0.009 A 
HETATM   29  C   UNL     1      11.874  -3.172 -21.941  1.00  0.00    -0.039 A 
HETATM   30  C   UNL     1      10.907  -3.056 -23.086  1.00  0.00     0.050 C 
HETATM   31  C   UNL     1      12.896  -4.134 -21.890  1.00  0.00     0.086 A 
HETATM   32  C   UNL     1      13.741  -4.227 -20.765  1.00  0.00     0.039 A 
BRANCH  31  33
HETATM   33  S   UNL     1      13.261  -5.212 -23.272  1.00  0.00     0.259 S 
HETATM   34  O   UNL     1      12.134  -6.098 -23.454  1.00  0.00    -0.201 OA
HETATM   35  O   UNL     1      13.756  -4.404 -24.365  1.00  0.00    -0.201 OA
BRANCH  33  36
HETATM   36  N   UNL     1      14.533  -6.154 -22.715  1.00  0.00    -0.320 N 
HETATM   37  C   UNL     1      14.964  -7.283 -23.529  1.00  0.00     0.159 C 
HETATM   38  HN  UNL     1      14.493  -6.283 -21.703  1.00  0.00     0.171 HD
ENDBRANCH  33  36
ENDBRANCH  31  33
ENDBRANCH  23  26
ENDBRANCH  12  14
ENDBRANCH   9  12
ENDBRANCH   7   8
TORSDOF 6
ENDMDL
MODEL 2
REMARK VINA RESULT:      -7.7      3.400      8.559
REMARK  6 active torsions:
REMARK  status: ('A' for Active; 'I' for Inactive)
REMARK    1  A    between atoms: C_7  and  N_8 
REMARK       I    between atoms: N_8  and  C_9 
REMARK    2  A    between atoms: C_9  and  C_11 
REMARK    3  A    between atoms: C_11  and  N_13 
REMARK    4  A    between atoms: C_22  and  C_23 
REMARK    5  A    between atoms: C_28  and  S_30 
REMARK    6  A    between atoms: S_30  and  N_33 
ROOT
HETATM    1  C   UNL     1      14.401  -3.686 -21.955  1.00  0.00     0.050 C 
HETATM    2  C   UNL     1      12.959  -3.390 -21.634  1.00  0.00    -0.035 A 
HETATM    3  C   UNL     1      11.980  -3.887 -22.522  1.00  0.00     0.009 A 
HETATM    4  C   UNL     1      10.625  -3.641 -22.311  1.00  0.00     0.001 A 
HETATM    5  C   UNL     1      10.229  -2.918 -21.197  1.00  0.00     0.002 A 
HETATM    6  C   UNL     1      11.188  -2.429 -20.306  1.00  0.00     0.030 A 
HETATM    7  C   UNL     1      12.562  -2.629 -20.514  1.00  0.00     0.040 A 
ENDROOT
BRANCH   7   8
HETATM    8  N   UNL     1      13.533  -2.087 -19.625  1.00  0.00    -0.325 N 
HETATM    9  C   UNL     1      13.866  -2.602 -18.377  1.00  0.00     0.246 C 
HETATM   10  O   UNL     1      13.330  -3.593 -17.872  1.00  0.00    -0.271 OA
HETATM   11  HN  UNL     1      13.900  -1.172 -19.843  1.00  0.00     0.169 HD
BRANCH   9  12
HETATM   12  C   UNL     1      14.992  -1.885 -17.583  1.00  0.00     0.199 C 
HETATM   13  C   UNL     1      15.954  -2.960 -17.068  1.00  0.00     0.044 C 
BRANCH  12  14
HETATM   14  N   UNL     1      15.657  -0.759 -18.267  1.00  0.00    -0.243 N 
HETATM   15  C   UNL     1      15.384   0.518 -17.794  1.00  0.00     0.269 C 
HETATM   16  O   UNL     1      14.565   0.757 -16.910  1.00  0.00    -0.266 OA
HETATM   17  C   UNL     1      16.041   1.628 -18.522  1.00  0.00     0.020 C 
HETATM   18  C   UNL     1      15.445   2.990 -18.288  1.00  0.00     0.045 C 
HETATM   19  C   UNL     1      17.063   1.395 -19.369  1.00  0.00    -0.017 C 
HETATM   20  C   UNL     1      16.316   4.120 -18.823  1.00  0.00     0.005 C 
HETATM   21  C   UNL     1      16.796   3.785 -20.228  1.00  0.00     0.005 C 
HETATM   22  C   UNL     1      17.637   2.506 -20.213  1.00  0.00     0.042 C 
HETATM   23  C   UNL     1      17.494  -0.042 -19.490  1.00  0.00     0.065 C 
HETATM   24  N   UNL     1      16.786  -1.031 -19.021  1.00  0.00    -0.294 N 
HETATM   25  HN  UNL     1      17.061  -1.995 -19.206  1.00  0.00     0.187 HD
BRANCH  23  26
HETATM   26  C   UNL     1      18.789  -0.390 -20.193  1.00  0.00    -0.006 A 
HETATM   27  C   UNL     1      18.757  -0.759 -21.544  1.00  0.00     0.014 A 
HETATM   28  C   UNL     1      19.933  -1.101 -22.230  1.00  0.00     0.009 A 
HETATM   29  C   UNL     1      21.187  -1.067 -21.597  1.00  0.00    -0.039 A 
HETATM   30  C   UNL     1      22.417  -1.428 -22.383  1.00  0.00     0.050 C 
HETATM   31  C   UNL     1      21.218  -0.709 -20.239  1.00  0.00     0.086 A 
HETATM   32  C   UNL     1      20.024  -0.431 -19.541  1.00  0.00     0.039 A 
BRANCH  31  33
HETATM   33  S   UNL     1      22.754  -0.478 -19.349  1.00  0.00     0.259 S 
HETATM   34  O   UNL     1      23.330  -1.781 -19.109  1.00  0.00    -0.201 OA
HETATM   35  O   UNL     1      23.514   0.561 -20.009  1.00  0.00    -0.201 OA
BRANCH  33  36
HETATM   36  N   UNL     1      22.263   0.116 -17.858  1.00  0.00    -0.320 N 
HETATM   37  C   UNL     1      23.215   0.088 -16.756  1.00  0.00     0.159 C 
HETATM   38  HN  UNL     1      21.292  -0.125 -17.657  1.00  0.00     0.171 HD
ENDBRANCH  33  36
ENDBRANCH  31  33
ENDBRANCH  23  26
ENDBRANCH  12  14
ENDBRANCH   9  12
ENDBRANCH   7   8
TORSDOF 6
ENDMDL
MODEL 3
REMARK VINA RESULT:      -7.6      6.593      9.869
REMARK  6 active torsions:
REMARK  status: ('A' for Active; 'I' for Inactive)
REMARK    1  A    between atoms: C_7  and  N_8 
REMARK       I    between atoms: N_8  and  C_9 
REMARK    2  A    between atoms: C_9  and  C_11 
REMARK    3  A    between atoms: C_11  and  N_13 
REMARK    4  A    between atoms: C_22  and  C_23 
REMARK    5  A    between atoms: C_28  and  S_30 
REMARK    6  A    between atoms: S_30  and  N_33 
ROOT
HETATM    1  C   UNL     1      16.392  -5.190 -29.238  1.00  0.00     0.050 C 
HETATM    2  C   UNL     1      16.395  -6.000 -30.507  1.00  0.00    -0.035 A 
HETATM    3  C   UNL     1      16.962  -5.407 -31.656  1.00  0.00     0.009 A 
HETATM    4  C   UNL     1      16.986  -6.078 -32.876  1.00  0.00     0.001 A 
HETATM    5  C   UNL     1      16.467  -7.360 -32.960  1.00  0.00     0.002 A 
HETATM    6  C   UNL     1      15.911  -7.962 -31.828  1.00  0.00     0.030 A 
HETATM    7  C   UNL     1      15.839  -7.294 -30.595  1.00  0.00     0.040 A 
ENDROOT
BRANCH   7   8
HETATM    8  N   UNL     1      15.229  -7.899 -29.459  1.00  0.00    -0.325 N 
HETATM    9  C   UNL     1      15.902  -8.479 -28.391  1.00  0.00     0.246 C 
HETATM   10  O   UNL     1      17.131  -8.566 -28.312  1.00  0.00    -0.271 OA
HETATM   11  HN  UNL     1      14.233  -8.060 -29.501  1.00  0.00     0.169 HD
BRANCH   9  12
HETATM   12  C   UNL     1      15.044  -9.043 -27.224  1.00  0.00     0.199 C 
HETATM   13  C   UNL     1      15.627 -10.405 -26.836  1.00  0.00     0.044 C 
BRANCH  12  14
HETATM   14  N   UNL     1      14.821  -8.136 -26.081  1.00  0.00    -0.243 N 
HETATM   15  C   UNL     1      13.915  -7.100 -26.264  1.00  0.00     0.269 C 
HETATM   16  O   UNL     1      13.367  -6.855 -27.336  1.00  0.00    -0.266 OA
HETATM   17  C   UNL     1      13.738  -6.188 -25.111  1.00  0.00     0.020 C 
HETATM   18  C   UNL     1      13.092  -4.866 -25.432  1.00  0.00     0.045 C 
HETATM   19  C   UNL     1      14.183  -6.524 -23.884  1.00  0.00    -0.017 C 
HETATM   20  C   UNL     1      12.676  -4.091 -24.187  1.00  0.00     0.005 C 
HETATM   21  C   UNL     1      13.807  -4.103 -23.167  1.00  0.00     0.005 C 
HETATM   22  C   UNL     1      14.127  -5.539 -22.744  1.00  0.00     0.042 C 
HETATM   23  C   UNL     1      14.830  -7.879 -23.776  1.00  0.00     0.065 C 
HETATM   24  N   UNL     1      15.174  -8.580 -24.819  1.00  0.00    -0.294 N 
HETATM   25  HN  UNL     1      15.698  -9.448 -24.706  1.00  0.00     0.187 HD
BRANCH  23  26
HETATM   26  C   UNL     1      15.123  -8.474 -22.414  1.00  0.00    -0.006 A 
HETATM   27  C   UNL     1      16.032  -7.829 -21.566  1.00  0.00     0.014 A 
HETATM   28  C   UNL     1      16.340  -8.355 -20.301  1.00  0.00     0.009 A 
HETATM   29  C   UNL     1      15.735  -9.531 -19.828  1.00  0.00    -0.039 A 
HETATM   30  C   UNL     1      16.090 -10.041 -18.459  1.00  0.00     0.050 C 
HETATM   31  C   UNL     1      14.833 -10.185 -20.683  1.00  0.00     0.086 A 
HETATM   32  C   UNL     1      14.579  -9.686 -21.978  1.00  0.00     0.039 A 
BRANCH  31  33
HETATM   33  S   UNL     1      13.877 -11.604 -20.157  1.00  0.00     0.259 S 
HETATM   34  O   UNL     1      14.763 -12.746 -20.115  1.00  0.00    -0.201 OA
HETATM   35  O   UNL     1      13.096 -11.226 -18.999  1.00  0.00    -0.201 OA
BRANCH  33  36
HETATM   36  N   UNL     1      12.815 -11.861 -21.430  1.00  0.00    -0.320 N 
HETATM   37  C   UNL     1      12.843 -13.153 -22.103  1.00  0.00     0.159 C 
HETATM   38  HN  UNL     1      12.706 -11.026 -22.006  1.00  0.00     0.171 HD
ENDBRANCH  33  36
ENDBRANCH  31  33
ENDBRANCH  23  26
ENDBRANCH  12  14
ENDBRANCH   9  12
ENDBRANCH   7   8
TORSDOF 6
ENDMDL
MODEL 4
REMARK VINA RESULT:      -7.6      2.404      2.800
REMARK  6 active torsions:
REMARK  status: ('A' for Active; 'I' for Inactive)
REMARK    1  A    between atoms: C_7  and  N_8 
REMARK       I    between atoms: N_8  and  C_9 
REMARK    2  A    between atoms: C_9  and  C_11 
REMARK    3  A    between atoms: C_11  and  N_13 
REMARK    4  A    between atoms: C_22  and  C_23 
REMARK    5  A    between atoms: C_28  and  S_30 
REMARK    6  A    between atoms: S_30  and  N_33 
ROOT
HETATM    1  C   UNL     1      17.932  -1.969 -20.720  1.00  0.00     0.050 C 
HETATM    2  C   UNL     1      19.064  -0.988 -20.877  1.00  0.00    -0.035 A 
HETATM    3  C   UNL     1      20.110  -1.338 -21.757  1.00  0.00     0.009 A 
HETATM    4  C   UNL     1      21.206  -0.498 -21.944  1.00  0.00     0.001 A 
HETATM    5  C   UNL     1      21.258   0.713 -21.274  1.00  0.00     0.002 A 
HETATM    6  C   UNL     1      20.224   1.075 -20.407  1.00  0.00     0.030 A 
HETATM    7  C   UNL     1      19.128   0.232 -20.169  1.00  0.00     0.040 A 
ENDROOT
BRANCH   7   8
HETATM    8  N   UNL     1      18.102   0.590 -19.248  1.00  0.00    -0.325 N 
HETATM    9  C   UNL     1      17.107   1.534 -19.471  1.00  0.00     0.246 C 
HETATM   10  O   UNL     1      17.009   2.207 -20.502  1.00  0.00    -0.271 OA
HETATM   11  HN  UNL     1      18.191   0.248 -18.302  1.00  0.00     0.169 HD
BRANCH   9  12
HETATM   12  C   UNL     1      16.051   1.741 -18.350  1.00  0.00     0.199 C 
HETATM   13  C   UNL     1      15.063   2.806 -18.835  1.00  0.00     0.044 C 
BRANCH  12  14
HETATM   14  N   UNL     1      15.410   0.520 -17.824  1.00  0.00    -0.243 N 
HETATM   15  C   UNL     1      15.244   0.437 -16.448  1.00  0.00     0.269 C 
HETATM   16  O   UNL     1      15.675   1.272 -15.657  1.00  0.00    -0.266 OA
HETATM   17  C   UNL     1      14.629  -0.815 -15.949  1.00  0.00     0.020 C 
HETATM   18  C   UNL     1      14.818  -1.082 -14.479  1.00  0.00     0.045 C 
HETATM   19  C   UNL     1      13.997  -1.661 -16.787  1.00  0.00    -0.017 C 
HETATM   20  C   UNL     1      13.939  -2.214 -13.963  1.00  0.00     0.005 C 
HETATM   21  C   UNL     1      14.006  -3.399 -14.916  1.00  0.00     0.005 C 
HETATM   22  C   UNL     1      13.494  -2.998 -16.302  1.00  0.00     0.042 C 
HETATM   23  C   UNL     1      13.941  -1.229 -18.227  1.00  0.00     0.065 C 
HETATM   24  N   UNL     1      14.659  -0.248 -18.697  1.00  0.00    -0.294 N 
HETATM   25  HN  UNL     1      14.667  -0.048 -19.697  1.00  0.00     0.187 HD
BRANCH  23  26
HETATM   26  C   UNL     1      13.037  -1.953 -19.203  1.00  0.00    -0.006 A 
HETATM   27  C   UNL     1      11.678  -1.618 -19.255  1.00  0.00     0.014 A 
HETATM   28  C   UNL     1      10.803  -2.274 -20.136  1.00  0.00     0.009 A 
HETATM   29  C   UNL     1      11.259  -3.273 -21.013  1.00  0.00    -0.039 A 
HETATM   30  C   UNL     1      10.282  -3.932 -21.947  1.00  0.00     0.050 C 
HETATM   31  C   UNL     1      12.619  -3.618 -20.952  1.00  0.00     0.086 A 
HETATM   32  C   UNL     1      13.477  -3.000 -20.018  1.00  0.00     0.039 A 
BRANCH  31  33
HETATM   33  S   UNL     1      13.365  -4.761 -22.111  1.00  0.00     0.259 S 
HETATM   34  O   UNL     1      12.800  -6.069 -21.872  1.00  0.00    -0.201 OA
HETATM   35  O   UNL     1      13.330  -4.165 -23.429  1.00  0.00    -0.201 OA
BRANCH  33  36
HETATM   36  N   UNL     1      14.969  -4.829 -21.622  1.00  0.00    -0.320 N 
HETATM   37  C   UNL     1      15.469  -6.080 -21.067  1.00  0.00     0.159 C 
HETATM   38  HN  UNL     1      15.267  -3.959 -21.181  1.00  0.00     0.171 HD
ENDBRANCH  33  36
ENDBRANCH  31  33
ENDBRANCH  23  26
ENDBRANCH  12  14
ENDBRANCH   9  12
ENDBRANCH   7   8
TORSDOF 6
ENDMDL
MODEL 5
REMARK VINA RESULT:      -7.5      2.672      3.161
REMARK  6 active torsions:
REMARK  status: ('A' for Active; 'I' for Inactive)
REMARK    1  A    between atoms: C_7  and  N_8 
REMARK       I    between atoms: N_8  and  C_9 
REMARK    2  A    between atoms: C_9  and  C_11 
REMARK    3  A    between atoms: C_11  and  N_13 
REMARK    4  A    between atoms: C_22  and  C_23 
REMARK    5  A    between atoms: C_28  and  S_30 
REMARK    6  A    between atoms: S_30  and  N_33 
ROOT
HETATM    1  C   UNL     1      18.550  -1.651 -20.902  1.00  0.00     0.050 C 
HETATM    2  C   UNL     1      19.623  -0.595 -20.859  1.00  0.00    -0.035 A 
HETATM    3  C   UNL     1      20.733  -0.760 -21.716  1.00  0.00     0.009 A 
HETATM    4  C   UNL     1      21.780   0.159 -21.724  1.00  0.00     0.001 A 
HETATM    5  C   UNL     1      21.721   1.267 -20.894  1.00  0.00     0.002 A 
HETATM    6  C   UNL     1      20.624   1.446 -20.048  1.00  0.00     0.030 A 
HETATM    7  C   UNL     1      19.573   0.517 -19.991  1.00  0.00     0.040 A 
ENDROOT
BRANCH   7   8
HETATM    8  N   UNL     1      18.482   0.685 -19.091  1.00  0.00    -0.325 N 
HETATM    9  C   UNL     1      17.394   1.529 -19.286  1.00  0.00     0.246 C 
HETATM   10  O   UNL     1      17.257   2.266 -20.267  1.00  0.00    -0.271 OA
HETATM   11  HN  UNL     1      18.576   0.282 -18.171  1.00  0.00     0.169 HD
BRANCH   9  12
HETATM   12  C   UNL     1      16.284   1.528 -18.200  1.00  0.00     0.199 C 
HETATM   13  C   UNL     1      15.271   2.615 -18.573  1.00  0.00     0.044 C 
BRANCH  12  14
HETATM   14  N   UNL     1      15.676   0.220 -17.888  1.00  0.00    -0.243 N 
HETATM   15  C   UNL     1      15.111   0.070 -16.629  1.00  0.00     0.269 C 
HETATM   16  O   UNL     1      15.169   0.925 -15.749  1.00  0.00    -0.266 OA
HETATM   17  C   UNL     1      14.540  -1.265 -16.335  1.00  0.00     0.020 C 
HETATM   18  C   UNL     1      14.305  -1.556 -14.877  1.00  0.00     0.045 C 
HETATM   19  C   UNL     1      14.308  -2.155 -17.321  1.00  0.00    -0.017 C 
HETATM   20  C   UNL     1      13.464  -2.806 -14.648  1.00  0.00     0.005 C 
HETATM   21  C   UNL     1      13.971  -3.940 -15.528  1.00  0.00     0.005 C 
HETATM   22  C   UNL     1      13.858  -3.559 -17.006  1.00  0.00     0.042 C 
HETATM   23  C   UNL     1      14.639  -1.685 -18.712  1.00  0.00     0.065 C 
HETATM   24  N   UNL     1      15.333  -0.606 -18.945  1.00  0.00    -0.294 N 
HETATM   25  HN  UNL     1      15.619  -0.373 -19.895  1.00  0.00     0.187 HD
BRANCH  23  26
HETATM   26  C   UNL     1      14.176  -2.482 -19.913  1.00  0.00    -0.006 A 
HETATM   27  C   UNL     1      15.125  -3.141 -20.705  1.00  0.00     0.014 A 
HETATM   28  C   UNL     1      14.738  -3.880 -21.835  1.00  0.00     0.009 A 
HETATM   29  C   UNL     1      13.387  -4.007 -22.201  1.00  0.00    -0.039 A 
HETATM   30  C   UNL     1      13.028  -4.824 -23.411  1.00  0.00     0.050 C 
HETATM   31  C   UNL     1      12.437  -3.336 -21.414  1.00  0.00     0.086 A 
HETATM   32  C   UNL     1      12.839  -2.542 -20.320  1.00  0.00     0.039 A 
BRANCH  31  33
HETATM   33  S   UNL     1      10.676  -3.531 -21.673  1.00  0.00     0.259 S 
HETATM   34  O   UNL     1       9.992  -2.912 -20.562  1.00  0.00    -0.201 OA
HETATM   35  O   UNL     1      10.370  -3.157 -23.037  1.00  0.00    -0.201 OA
BRANCH  33  36
HETATM   36  N   UNL     1      10.435  -5.186 -21.530  1.00  0.00    -0.320 N 
HETATM   37  C   UNL     1      10.591  -5.795 -20.216  1.00  0.00     0.159 C 
HETATM   38  HN  UNL     1      10.800  -5.692 -22.338  1.00  0.00     0.171 HD
ENDBRANCH  33  36
ENDBRANCH  31  33
ENDBRANCH  23  26
ENDBRANCH  12  14
ENDBRANCH   9  12
ENDBRANCH   7   8
TORSDOF 6
ENDMDL
MODEL 6
REMARK VINA RESULT:      -7.5      8.572     14.512
REMARK  6 active torsions:
REMARK  status: ('A' for Active; 'I' for Inactive)
REMARK    1  A    between atoms: C_7  and  N_8 
REMARK       I    between atoms: N_8  and  C_9 
REMARK    2  A    between atoms: C_9  and  C_11 
REMARK    3  A    between atoms: C_11  and  N_13 
REMARK    4  A    between atoms: C_22  and  C_23 
REMARK    5  A    between atoms: C_28  and  S_30 
REMARK    6  A    between atoms: S_30  and  N_33 
ROOT
HETATM    1  C   UNL     1      14.900 -13.279 -28.164  1.00  0.00     0.050 C 
HETATM    2  C   UNL     1      15.273 -14.592 -28.799  1.00  0.00    -0.035 A 
HETATM    3  C   UNL     1      15.613 -15.658 -27.937  1.00  0.00     0.009 A 
HETATM    4  C   UNL     1      15.991 -16.900 -28.441  1.00  0.00     0.001 A 
HETATM    5  C   UNL     1      16.011 -17.102 -29.812  1.00  0.00     0.002 A 
HETATM    6  C   UNL     1      15.667 -16.058 -30.675  1.00  0.00     0.030 A 
HETATM    7  C   UNL     1      15.320 -14.786 -30.196  1.00  0.00     0.040 A 
ENDROOT
BRANCH   7   8
HETATM    8  N   UNL     1      15.016 -13.716 -31.086  1.00  0.00    -0.325 N 
HETATM    9  C   UNL     1      15.913 -12.752 -31.530  1.00  0.00     0.246 C 
HETATM   10  O   UNL     1      17.095 -12.691 -31.178  1.00  0.00    -0.271 OA
HETATM   11  HN  UNL     1      14.041 -13.548 -31.290  1.00  0.00     0.169 HD
BRANCH   9  12
HETATM   12  C   UNL     1      15.387 -11.695 -32.541  1.00  0.00     0.199 C 
HETATM   13  C   UNL     1      13.900 -11.975 -32.772  1.00  0.00     0.044 C 
BRANCH  12  14
HETATM   14  N   UNL     1      15.693 -10.285 -32.229  1.00  0.00    -0.243 N 
HETATM   15  C   UNL     1      15.597  -9.373 -33.270  1.00  0.00     0.269 C 
HETATM   16  O   UNL     1      15.361  -9.688 -34.434  1.00  0.00    -0.266 OA
HETATM   17  C   UNL     1      15.943  -7.972 -32.933  1.00  0.00     0.020 C 
HETATM   18  C   UNL     1      16.234  -7.082 -34.112  1.00  0.00     0.045 C 
HETATM   19  C   UNL     1      16.034  -7.568 -31.650  1.00  0.00    -0.017 C 
HETATM   20  C   UNL     1      16.301  -5.606 -33.738  1.00  0.00     0.005 C 
HETATM   21  C   UNL     1      17.146  -5.426 -32.484  1.00  0.00     0.005 C 
HETATM   22  C   UNL     1      16.521  -6.182 -31.309  1.00  0.00     0.042 C 
HETATM   23  C   UNL     1      15.736  -8.619 -30.615  1.00  0.00     0.065 C 
HETATM   24  N   UNL     1      15.645  -9.887 -30.904  1.00  0.00    -0.294 N 
HETATM   25  HN  UNL     1      15.538 -10.578 -30.162  1.00  0.00     0.187 HD
BRANCH  23  26
HETATM   26  C   UNL     1      15.545  -8.224 -29.166  1.00  0.00    -0.006 A 
HETATM   27  C   UNL     1      16.594  -8.418 -28.258  1.00  0.00     0.014 A 
HETATM   28  C   UNL     1      16.452  -8.076 -26.904  1.00  0.00     0.009 A 
HETATM   29  C   UNL     1      15.266  -7.508 -26.411  1.00  0.00    -0.039 A 
HETATM   30  C   UNL     1      15.174  -7.147 -24.954  1.00  0.00     0.050 C 
HETATM   31  C   UNL     1      14.209  -7.326 -27.317  1.00  0.00     0.086 A 
HETATM   32  C   UNL     1      14.337  -7.732 -28.662  1.00  0.00     0.039 A 
BRANCH  31  33
HETATM   33  S   UNL     1      12.699  -6.478 -26.864  1.00  0.00     0.259 S 
HETATM   34  O   UNL     1      11.991  -7.306 -25.915  1.00  0.00    -0.201 OA
HETATM   35  O   UNL     1      13.022  -5.102 -26.555  1.00  0.00    -0.201 OA
BRANCH  33  36
HETATM   36  N   UNL     1      11.799  -6.486 -28.280  1.00  0.00    -0.320 N 
HETATM   37  C   UNL     1      10.699  -7.435 -28.394  1.00  0.00     0.159 C 
HETATM   38  HN  UNL     1      12.385  -6.334 -29.102  1.00  0.00     0.171 HD
ENDBRANCH  33  36
ENDBRANCH  31  33
ENDBRANCH  23  26
ENDBRANCH  12  14
ENDBRANCH   9  12
ENDBRANCH   7   8
TORSDOF 6
ENDMDL
MODEL 7
REMARK VINA RESULT:      -7.4      3.702      7.725
REMARK  6 active torsions:
REMARK  status: ('A' for Active; 'I' for Inactive)
REMARK    1  A    between atoms: C_7  and  N_8 
REMARK       I    between atoms: N_8  and  C_9 
REMARK    2  A    between atoms: C_9  and  C_11 
REMARK    3  A    between atoms: C_11  and  N_13 
REMARK    4  A    between atoms: C_22  and  C_23 
REMARK    5  A    between atoms: C_28  and  S_30 
REMARK    6  A    between atoms: S_30  and  N_33 
ROOT
HETATM    1  C   UNL     1      13.228  -4.498 -25.412  1.00  0.00     0.050 C 
HETATM    2  C   UNL     1      14.135  -5.590 -25.914  1.00  0.00    -0.035 A 
HETATM    3  C   UNL     1      14.715  -5.417 -27.190  1.00  0.00     0.009 A 
HETATM    4  C   UNL     1      15.549  -6.389 -27.739  1.00  0.00     0.001 A 
HETATM    5  C   UNL     1      15.834  -7.533 -27.013  1.00  0.00     0.002 A 
HETATM    6  C   UNL     1      15.273  -7.711 -25.745  1.00  0.00     0.030 A 
HETATM    7  C   UNL     1      14.399  -6.767 -25.183  1.00  0.00     0.040 A 
ENDROOT
BRANCH   7   8
HETATM    8  N   UNL     1      13.797  -6.980 -23.910  1.00  0.00    -0.325 N 
HETATM    9  C   UNL     1      14.471  -7.057 -22.697  1.00  0.00     0.246 C 
HETATM   10  O   UNL     1      15.697  -6.976 -22.580  1.00  0.00    -0.271 OA
HETATM   11  HN  UNL     1      12.824  -7.251 -23.899  1.00  0.00     0.169 HD
BRANCH   9  12
HETATM   12  C   UNL     1      13.617  -7.247 -21.413  1.00  0.00     0.199 C 
HETATM   13  C   UNL     1      14.270  -8.355 -20.582  1.00  0.00     0.044 C 
BRANCH  12  14
HETATM   14  N   UNL     1      13.307  -6.023 -20.649  1.00  0.00    -0.243 N 
HETATM   15  C   UNL     1      12.250  -5.246 -21.102  1.00  0.00     0.269 C 
HETATM   16  O   UNL     1      11.629  -5.475 -22.137  1.00  0.00    -0.266 OA
HETATM   17  C   UNL     1      11.985  -4.007 -20.334  1.00  0.00     0.020 C 
HETATM   18  C   UNL     1      11.138  -2.983 -21.040  1.00  0.00     0.045 C 
HETATM   19  C   UNL     1      12.524  -3.818 -19.113  1.00  0.00    -0.017 C 
HETATM   20  C   UNL     1      10.662  -1.867 -20.116  1.00  0.00     0.005 C 
HETATM   21  C   UNL     1      11.821  -1.369 -19.265  1.00  0.00     0.005 C 
HETATM   22  C   UNL     1      12.368  -2.502 -18.393  1.00  0.00     0.042 C 
HETATM   23  C   UNL     1      13.370  -4.950 -18.593  1.00  0.00     0.065 C 
HETATM   24  N   UNL     1      13.772  -5.933 -19.348  1.00  0.00    -0.294 N 
HETATM   25  HN  UNL     1      14.423  -6.629 -18.985  1.00  0.00     0.187 HD
BRANCH  23  26
HETATM   26  C   UNL     1      13.802  -4.970 -17.142  1.00  0.00    -0.006 A 
HETATM   27  C   UNL     1      12.980  -5.588 -16.191  1.00  0.00     0.014 A 
HETATM   28  C   UNL     1      13.339  -5.618 -14.833  1.00  0.00     0.009 A 
HETATM   29  C   UNL     1      14.542  -5.051 -14.380  1.00  0.00    -0.039 A 
HETATM   30  C   UNL     1      14.884  -5.125 -12.918  1.00  0.00     0.050 C 
HETATM   31  C   UNL     1      15.360  -4.421 -15.331  1.00  0.00     0.086 A 
HETATM   32  C   UNL     1      14.961  -4.338 -16.682  1.00  0.00     0.039 A 
BRANCH  31  33
HETATM   33  S   UNL     1      16.986  -3.791 -14.924  1.00  0.00     0.259 S 
HETATM   34  O   UNL     1      16.818  -2.510 -14.279  1.00  0.00    -0.201 OA
HETATM   35  O   UNL     1      17.741  -4.850 -14.289  1.00  0.00    -0.201 OA
BRANCH  33  36
HETATM   36  N   UNL     1      17.683  -3.493 -16.421  1.00  0.00    -0.320 N 
HETATM   37  C   UNL     1      18.707  -4.411 -16.900  1.00  0.00     0.159 C 
HETATM   38  HN  UNL     1      17.823  -2.495 -16.580  1.00  0.00     0.171 HD
ENDBRANCH  33  36
ENDBRANCH  31  33
ENDBRANCH  23  26
ENDBRANCH  12  14
ENDBRANCH   9  12
ENDBRANCH   7   8
TORSDOF 6
ENDMDL
MODEL 8
REMARK VINA RESULT:      -7.4      4.605      7.594
REMARK  6 active torsions:
REMARK  status: ('A' for Active; 'I' for Inactive)
REMARK    1  A    between atoms: C_7  and  N_8 
REMARK       I    between atoms: N_8  and  C_9 
REMARK    2  A    between atoms: C_9  and  C_11 
REMARK    3  A    between atoms: C_11  and  N_13 
REMARK    4  A    between atoms: C_22  and  C_23 
REMARK    5  A    between atoms: C_28  and  S_30 
REMARK    6  A    between atoms: S_30  and  N_33 
ROOT
HETATM    1  C   UNL     1      13.199  -4.452 -25.741  1.00  0.00     0.050 C 
HETATM    2  C   UNL     1      13.988  -5.735 -25.758  1.00  0.00    -0.035 A 
HETATM    3  C   UNL     1      14.804  -5.981 -26.883  1.00  0.00     0.009 A 
HETATM    4  C   UNL     1      15.550  -7.153 -26.989  1.00  0.00     0.001 A 
HETATM    5  C   UNL     1      15.510  -8.082 -25.962  1.00  0.00     0.002 A 
HETATM    6  C   UNL     1      14.713  -7.846 -24.840  1.00  0.00     0.030 A 
HETATM    7  C   UNL     1      13.921  -6.692 -24.723  1.00  0.00     0.040 A 
ENDROOT
BRANCH   7   8
HETATM    8  N   UNL     1      13.077  -6.483 -23.595  1.00  0.00    -0.325 N 
HETATM    9  C   UNL     1      13.468  -5.928 -22.382  1.00  0.00     0.246 C 
HETATM   10  O   UNL     1      14.621  -5.571 -22.124  1.00  0.00    -0.271 OA
HETATM   11  HN  UNL     1      12.162  -6.909 -23.618  1.00  0.00     0.169 HD
BRANCH   9  12
HETATM   12  C   UNL     1      12.375  -5.743 -21.294  1.00  0.00     0.199 C 
HETATM   13  C   UNL     1      12.142  -7.105 -20.634  1.00  0.00     0.044 C 
BRANCH  12  14
HETATM   14  N   UNL     1      12.588  -4.639 -20.337  1.00  0.00    -0.243 N 
HETATM   15  C   UNL     1      11.724  -3.555 -20.422  1.00  0.00     0.269 C 
HETATM   16  O   UNL     1      10.866  -3.432 -21.292  1.00  0.00    -0.266 OA
HETATM   17  C   UNL     1      11.984  -2.449 -19.471  1.00  0.00     0.020 C 
HETATM   18  C   UNL     1      11.336  -1.136 -19.821  1.00  0.00     0.045 C 
HETATM   19  C   UNL     1      12.793  -2.624 -18.406  1.00  0.00    -0.017 C 
HETATM   20  C   UNL     1      11.394  -0.124 -18.683  1.00  0.00     0.005 C 
HETATM   21  C   UNL     1      12.796  -0.090 -18.090  1.00  0.00     0.005 C 
HETATM   22  C   UNL     1      13.166  -1.462 -17.520  1.00  0.00     0.042 C 
HETATM   23  C   UNL     1      13.371  -4.004 -18.248  1.00  0.00     0.065 C 
HETATM   24  N   UNL     1      13.315  -4.903 -19.190  1.00  0.00    -0.294 N 
HETATM   25  HN  UNL     1      13.803  -5.793 -19.083  1.00  0.00     0.187 HD
BRANCH  23  26
HETATM   26  C   UNL     1      14.068  -4.393 -16.961  1.00  0.00    -0.006 A 
HETATM   27  C   UNL     1      13.306  -4.582 -15.800  1.00  0.00     0.014 A 
HETATM   28  C   UNL     1      13.915  -4.930 -14.584  1.00  0.00     0.009 A 
HETATM   29  C   UNL     1      15.303  -5.124 -14.487  1.00  0.00    -0.039 A 
HETATM   30  C   UNL     1      15.900  -5.512 -13.163  1.00  0.00     0.050 C 
HETATM   31  C   UNL     1      16.068  -4.922 -15.648  1.00  0.00     0.086 A 
HETATM   32  C   UNL     1      15.457  -4.508 -16.850  1.00  0.00     0.039 A 
BRANCH  31  33
HETATM   33  S   UNL     1      17.822  -5.279 -15.709  1.00  0.00     0.259 S 
HETATM   34  O   UNL     1      18.251  -5.168 -17.084  1.00  0.00    -0.201 OA
HETATM   35  O   UNL     1      18.478  -4.527 -14.661  1.00  0.00    -0.201 OA
BRANCH  33  36
HETATM   36  N   UNL     1      17.909  -6.905 -15.303  1.00  0.00    -0.320 N 
HETATM   37  C   UNL     1      17.124  -7.854 -16.081  1.00  0.00     0.159 C 
HETATM   38  HN  UNL     1      17.958  -7.041 -14.293  1.00  0.00     0.171 HD
ENDBRANCH  33  36
ENDBRANCH  31  33
ENDBRANCH  23  26
ENDBRANCH  12  14
ENDBRANCH   9  12
ENDBRANCH   7   8
TORSDOF 6
ENDMDL
MODEL 9
REMARK VINA RESULT:      -7.3      3.697      4.809
REMARK  6 active torsions:
REMARK  status: ('A' for Active; 'I' for Inactive)
REMARK    1  A    between atoms: C_7  and  N_8 
REMARK       I    between atoms: N_8  and  C_9 
REMARK    2  A    between atoms: C_9  and  C_11 
REMARK    3  A    between atoms: C_11  and  N_13 
REMARK    4  A    between atoms: C_22  and  C_23 
REMARK    5  A    between atoms: C_28  and  S_30 
REMARK    6  A    between atoms: S_30  and  N_33 
ROOT
HETATM    1  C   UNL     1      18.918  -1.841 -15.222  1.00  0.00     0.050 C 
HETATM    2  C   UNL     1      19.098  -0.637 -14.336  1.00  0.00    -0.035 A 
HETATM    3  C   UNL     1      20.351  -0.474 -13.708  1.00  0.00     0.009 A 
HETATM    4  C   UNL     1      20.596   0.601 -12.856  1.00  0.00     0.001 A 
HETATM    5  C   UNL     1      19.600   1.539 -12.639  1.00  0.00     0.002 A 
HETATM    6  C   UNL     1      18.358   1.394 -13.262  1.00  0.00     0.030 A 
HETATM    7  C   UNL     1      18.071   0.301 -14.095  1.00  0.00     0.040 A 
ENDROOT
BRANCH   7   8
HETATM    8  N   UNL     1      16.787   0.138 -14.689  1.00  0.00    -0.325 N 
HETATM    9  C   UNL     1      16.416   0.579 -15.954  1.00  0.00     0.246 C 
HETATM   10  O   UNL     1      17.163   1.202 -16.715  1.00  0.00    -0.271 OA
HETATM   11  HN  UNL     1      16.039  -0.185 -14.091  1.00  0.00     0.169 HD
BRANCH   9  12
HETATM   12  C   UNL     1      14.974   0.256 -16.432  1.00  0.00     0.199 C 
HETATM   13  C   UNL     1      14.667   1.166 -17.625  1.00  0.00     0.044 C 
BRANCH  12  14
HETATM   14  N   UNL     1      14.669  -1.169 -16.667  1.00  0.00    -0.243 N 
HETATM   15  C   UNL     1      14.060  -1.863 -15.630  1.00  0.00     0.269 C 
HETATM   16  O   UNL     1      13.848  -1.383 -14.519  1.00  0.00    -0.266 OA
HETATM   17  C   UNL     1      13.797  -3.299 -15.884  1.00  0.00     0.020 C 
HETATM   18  C   UNL     1      13.527  -4.128 -14.657  1.00  0.00     0.045 C 
HETATM   19  C   UNL     1      13.856  -3.806 -17.131  1.00  0.00    -0.017 C 
HETATM   20  C   UNL     1      12.988  -5.516 -14.985  1.00  0.00     0.005 C 
HETATM   21  C   UNL     1      13.812  -6.142 -16.101  1.00  0.00     0.005 C 
HETATM   22  C   UNL     1      13.726  -5.290 -17.370  1.00  0.00     0.042 C 
HETATM   23  C   UNL     1      14.173  -2.818 -18.221  1.00  0.00     0.065 C 
HETATM   24  N   UNL     1      14.610  -1.615 -17.976  1.00  0.00    -0.294 N 
HETATM   25  HN  UNL     1      14.906  -1.008 -18.740  1.00  0.00     0.187 HD
BRANCH  23  26
HETATM   26  C   UNL     1      14.003  -3.209 -19.674  1.00  0.00    -0.006 A 
HETATM   27  C   UNL     1      15.131  -3.563 -20.425  1.00  0.00     0.014 A 
HETATM   28  C   UNL     1      15.018  -3.920 -21.778  1.00  0.00     0.009 A 
HETATM   29  C   UNL     1      13.772  -3.958 -22.425  1.00  0.00    -0.039 A 
HETATM   30  C   UNL     1      13.707  -4.363 -23.871  1.00  0.00     0.050 C 
HETATM   31  C   UNL     1      12.641  -3.592 -21.676  1.00  0.00     0.086 A 
HETATM   32  C   UNL     1      12.772  -3.171 -20.336  1.00  0.00     0.039 A 
BRANCH  31  33
HETATM   33  S   UNL     1      10.979  -3.739 -22.324  1.00  0.00     0.259 S 
HETATM   34  O   UNL     1      10.854  -2.828 -23.439  1.00  0.00    -0.201 OA
HETATM   35  O   UNL     1      10.669  -5.145 -22.473  1.00  0.00    -0.201 OA
BRANCH  33  36
HETATM   36  N   UNL     1      10.017  -3.131 -21.091  1.00  0.00    -0.320 N 
HETATM   37  C   UNL     1       8.612  -3.511 -21.060  1.00  0.00     0.159 C 
HETATM   38  HN  UNL     1      10.255  -2.164 -20.868  1.00  0.00     0.171 HD
ENDBRANCH  33  36
ENDBRANCH  31  33
ENDBRANCH  23  26
ENDBRANCH  12  14
ENDBRANCH   9  12
ENDBRANCH   7   8
TORSDOF 6
ENDMDL
