MODEL 1
REMARK VINA RESULT:      -7.8      0.000      0.000
REMARK  6 active torsions:
REMARK  status: ('A' for Active; 'I' for Inactive)
REMARK       I    between atoms: C_2  and  N_4 
REMARK    1  A    between atoms: N_4  and  C_5 
REMARK    2  A    between atoms: N_4  and  C_13 
REMARK    3  A    between atoms: C_5  and  C_6 
REMARK    4  A    between atoms: N_16  and  C_17 
REMARK    5  A    between atoms: C_17  and  C_18 
REMARK       I    between atoms: C_18  and  N_20 
REMARK    6  A    between atoms: N_20  and  C_21 
ROOT
HETATM    1  C   UNL     1      13.488  -2.226 -14.530  1.00  0.00     0.117 C 
HETATM    2  C   UNL     1      13.318  -1.581 -15.889  1.00  0.00     0.221 C 
HETATM    3  O   UNL     1      12.539  -0.631 -16.003  1.00  0.00    -0.273 OA
HETATM    4  N   UNL     1      14.068  -2.078 -16.965  1.00  0.00    -0.295 N 
ENDROOT
BRANCH   4   5
HETATM    5  C   UNL     1      13.798  -1.431 -18.262  1.00  0.00     0.174 C 
BRANCH   5   6
HETATM    6  C   UNL     1      12.901  -2.159 -19.248  1.00  0.00    -0.018 A 
HETATM    7  C   UNL     1      11.502  -2.121 -19.157  1.00  0.00     0.010 A 
HETATM    8  C   UNL     1      10.696  -2.697 -20.150  1.00  0.00     0.001 A 
HETATM    9  C   UNL     1      11.275  -3.332 -21.243  1.00  0.00     0.002 A 
HETATM   10  C   UNL     1      12.661  -3.403 -21.344  1.00  0.00     0.024 A 
HETATM   11  C   UNL     1      13.466  -2.820 -20.359  1.00  0.00     0.042 A 
HETATM   12 CL   UNL     1      15.180  -2.923 -20.587  1.00  0.00    -0.084 Cl
ENDBRANCH   5   6
ENDBRANCH   4   5
BRANCH   4  13
HETATM   13  C   UNL     1      14.730  -3.319 -16.959  1.00  0.00     0.180 A 
HETATM   14  C   UNL     1      16.250  -3.339 -17.194  1.00  0.00     0.293 A 
HETATM   15  O   UNL     1      16.874  -2.290 -17.288  1.00  0.00    -0.264 OA
HETATM   16  N   UNL     1      16.855  -4.595 -17.248  1.00  0.00    -0.300 N 
HETATM   17  C   UNL     1      16.103  -5.774 -16.983  1.00  0.00     0.065 A 
HETATM   18  C   UNL     1      16.682  -7.051 -16.952  1.00  0.00     0.032 A 
HETATM   19  C   UNL     1      14.729  -5.641 -16.732  1.00  0.00     0.061 A 
HETATM   20  C   UNL     1      15.907  -8.173 -16.644  1.00  0.00     0.002 A 
HETATM   21  C   UNL     1      14.548  -8.036 -16.386  1.00  0.00     0.002 A 
HETATM   22  C   UNL     1      13.962  -6.774 -16.440  1.00  0.00     0.032 A 
HETATM   23  N   UNL     1      14.068  -4.411 -16.746  1.00  0.00    -0.336 N 
HETATM   24  HN  UNL     1      13.061  -4.372 -16.589  1.00  0.00     0.168 HD
BRANCH  16  25
HETATM   25  C   UNL     1      18.298  -4.632 -17.440  1.00  0.00     0.235 C 
BRANCH  25  26
HETATM   26  C   UNL     1      18.800  -4.232 -18.831  1.00  0.00     0.240 C 
HETATM   27  O   UNL     1      18.602  -5.004 -19.770  1.00  0.00    -0.271 OA
HETATM   28  N   UNL     1      19.393  -2.987 -18.929  1.00  0.00    -0.326 N 
HETATM   29  HN  UNL     1      19.313  -2.375 -18.127  1.00  0.00     0.169 HD
BRANCH  28  30
HETATM   30  C   UNL     1      19.972  -2.434 -20.099  1.00  0.00     0.037 A 
HETATM   31  C   UNL     1      21.258  -2.767 -20.541  1.00  0.00     0.029 A 
HETATM   32  C   UNL     1      21.777  -2.221 -21.718  1.00  0.00     0.005 A 
HETATM   33  C   UNL     1      21.018  -1.327 -22.464  1.00  0.00     0.042 A 
HETATM   34  C   UNL     1      19.749  -0.973 -22.013  1.00  0.00     0.118 A 
HETATM   35  C   UNL     1      19.226  -1.508 -20.835  1.00  0.00     0.071 A 
HETATM   36  F   UNL     1      19.015  -0.114 -22.729  1.00  0.00    -0.206 F 
ENDBRANCH  28  30
ENDBRANCH  25  26
ENDBRANCH  16  25
ENDBRANCH   4  13
TORSDOF 6
ENDMDL
MODEL 2
REMARK VINA RESULT:      -7.8      3.987      6.689
REMARK  6 active torsions:
REMARK  status: ('A' for Active; 'I' for Inactive)
REMARK       I    between atoms: C_2  and  N_4 
REMARK    1  A    between atoms: N_4  and  C_5 
REMARK    2  A    between atoms: N_4  and  C_13 
REMARK    3  A    between atoms: C_5  and  C_6 
REMARK    4  A    between atoms: N_16  and  C_17 
REMARK    5  A    between atoms: C_17  and  C_18 
REMARK       I    between atoms: C_18  and  N_20 
REMARK    6  A    between atoms: N_20  and  C_21 
ROOT
HETATM    1  C   UNL     1      13.008  -5.300 -14.585  1.00  0.00     0.117 C 
HETATM    2  C   UNL     1      14.334  -5.631 -15.235  1.00  0.00     0.221 C 
HETATM    3  O   UNL     1      15.201  -6.196 -14.563  1.00  0.00    -0.273 OA
HETATM    4  N   UNL     1      14.521  -5.297 -16.585  1.00  0.00    -0.295 N 
ENDROOT
BRANCH   4   5
HETATM    5  C   UNL     1      15.859  -5.601 -17.121  1.00  0.00     0.174 C 
BRANCH   5   6
HETATM    6  C   UNL     1      15.945  -6.324 -18.455  1.00  0.00    -0.018 A 
HETATM    7  C   UNL     1      16.414  -5.695 -19.618  1.00  0.00     0.010 A 
HETATM    8  C   UNL     1      16.601  -6.417 -20.805  1.00  0.00     0.001 A 
HETATM    9  C   UNL     1      16.309  -7.776 -20.854  1.00  0.00     0.002 A 
HETATM   10  C   UNL     1      15.821  -8.416 -19.719  1.00  0.00     0.024 A 
HETATM   11  C   UNL     1      15.644  -7.699 -18.531  1.00  0.00     0.042 A 
HETATM   12 CL   UNL     1      15.069  -8.587 -17.159  1.00  0.00    -0.084 Cl
ENDBRANCH   5   6
ENDBRANCH   4   5
BRANCH   4  13
HETATM   13  C   UNL     1      13.698  -4.406 -17.298  1.00  0.00     0.180 A 
HETATM   14  C   UNL     1      12.610  -4.989 -18.216  1.00  0.00     0.293 A 
HETATM   15  O   UNL     1      12.409  -6.196 -18.245  1.00  0.00    -0.264 OA
HETATM   16  N   UNL     1      11.864  -4.072 -18.956  1.00  0.00    -0.300 N 
HETATM   17  C   UNL     1      12.042  -2.673 -18.769  1.00  0.00     0.065 A 
HETATM   18  C   UNL     1      11.265  -1.713 -19.434  1.00  0.00     0.032 A 
HETATM   19  C   UNL     1      13.031  -2.244 -17.870  1.00  0.00     0.061 A 
HETATM   20  C   UNL     1      11.451  -0.351 -19.182  1.00  0.00     0.002 A 
HETATM   21  C   UNL     1      12.425   0.068 -18.284  1.00  0.00     0.002 A 
HETATM   22  C   UNL     1      13.218  -0.878 -17.639  1.00  0.00     0.032 A 
HETATM   23  N   UNL     1      13.854  -3.128 -17.168  1.00  0.00    -0.336 N 
HETATM   24  HN  UNL     1      14.580  -2.764 -16.550  1.00  0.00     0.168 HD
BRANCH  16  25
HETATM   25  C   UNL     1      10.809  -4.604 -19.807  1.00  0.00     0.235 C 
BRANCH  25  26
HETATM   26  C   UNL     1      11.258  -5.165 -21.160  1.00  0.00     0.240 C 
HETATM   27  O   UNL     1      10.661  -6.140 -21.618  1.00  0.00    -0.271 OA
HETATM   28  N   UNL     1      12.277  -4.479 -21.795  1.00  0.00    -0.326 N 
HETATM   29  HN  UNL     1      12.541  -3.583 -21.405  1.00  0.00     0.169 HD
BRANCH  28  30
HETATM   30  C   UNL     1      12.883  -4.844 -23.024  1.00  0.00     0.037 A 
HETATM   31  C   UNL     1      12.588  -4.207 -24.235  1.00  0.00     0.029 A 
HETATM   32  C   UNL     1      13.233  -4.579 -25.418  1.00  0.00     0.005 A 
HETATM   33  C   UNL     1      14.177  -5.599 -25.404  1.00  0.00     0.042 A 
HETATM   34  C   UNL     1      14.453  -6.252 -24.206  1.00  0.00     0.118 A 
HETATM   35  C   UNL     1      13.808  -5.893 -23.023  1.00  0.00     0.071 A 
HETATM   36  F   UNL     1      15.362  -7.233 -24.189  1.00  0.00    -0.206 F 
ENDBRANCH  28  30
ENDBRANCH  25  26
ENDBRANCH  16  25
ENDBRANCH   4  13
TORSDOF 6
ENDMDL
MODEL 3
REMARK VINA RESULT:      -7.7      3.967      6.652
REMARK  6 active torsions:
REMARK  status: ('A' for Active; 'I' for Inactive)
REMARK       I    between atoms: C_2  and  N_4 
REMARK    1  A    between atoms: N_4  and  C_5 
REMARK    2  A    between atoms: N_4  and  C_13 
REMARK    3  A    between atoms: C_5  and  C_6 
REMARK    4  A    between atoms: N_16  and  C_17 
REMARK    5  A    between atoms: C_17  and  C_18 
REMARK       I    between atoms: C_18  and  N_20 
REMARK    6  A    between atoms: N_20  and  C_21 
ROOT
HETATM    1  C   UNL     1      13.259  -5.337 -14.535  1.00  0.00     0.117 C 
HETATM    2  C   UNL     1      14.638  -5.511 -15.133  1.00  0.00     0.221 C 
HETATM    3  O   UNL     1      15.562  -5.876 -14.401  1.00  0.00    -0.273 OA
HETATM    4  N   UNL     1      14.810  -5.267 -16.504  1.00  0.00    -0.295 N 
ENDROOT
BRANCH   4   5
HETATM    5  C   UNL     1      16.194  -5.404 -16.991  1.00  0.00     0.174 C 
BRANCH   5   6
HETATM    6  C   UNL     1      16.442  -6.306 -18.188  1.00  0.00    -0.018 A 
HETATM    7  C   UNL     1      16.574  -5.802 -19.491  1.00  0.00     0.010 A 
HETATM    8  C   UNL     1      16.926  -6.640 -20.559  1.00  0.00     0.001 A 
HETATM    9  C   UNL     1      17.139  -7.998 -20.345  1.00  0.00     0.002 A 
HETATM   10  C   UNL     1      16.992  -8.525 -19.066  1.00  0.00     0.024 A 
HETATM   11  C   UNL     1      16.650  -7.688 -17.998  1.00  0.00     0.042 A 
HETATM   12 CL   UNL     1      16.527  -8.424 -16.434  1.00  0.00    -0.084 Cl
ENDBRANCH   5   6
ENDBRANCH   4   5
BRANCH   4  13
HETATM   13  C   UNL     1      13.881  -4.579 -17.306  1.00  0.00     0.180 A 
HETATM   14  C   UNL     1      12.884  -5.400 -18.141  1.00  0.00     0.293 A 
HETATM   15  O   UNL     1      12.843  -6.619 -18.031  1.00  0.00    -0.264 OA
HETATM   16  N   UNL     1      12.027  -4.679 -18.972  1.00  0.00    -0.300 N 
HETATM   17  C   UNL     1      12.018  -3.257 -18.946  1.00  0.00     0.065 A 
HETATM   18  C   UNL     1      11.125  -2.490 -19.708  1.00  0.00     0.032 A 
HETATM   19  C   UNL     1      12.937  -2.603 -18.111  1.00  0.00     0.061 A 
HETATM   20  C   UNL     1      11.129  -1.095 -19.613  1.00  0.00     0.002 A 
HETATM   21  C   UNL     1      12.034  -0.452 -18.778  1.00  0.00     0.002 A 
HETATM   22  C   UNL     1      12.941  -1.206 -18.038  1.00  0.00     0.032 A 
HETATM   23  N   UNL     1      13.866  -3.285 -17.322  1.00  0.00    -0.336 N 
HETATM   24  HN  UNL     1      14.535  -2.762 -16.757  1.00  0.00     0.168 HD
BRANCH  16  25
HETATM   25  C   UNL     1      11.055  -5.439 -19.748  1.00  0.00     0.235 C 
BRANCH  25  26
HETATM   26  C   UNL     1      11.474  -5.801 -21.176  1.00  0.00     0.240 C 
HETATM   27  O   UNL     1      10.683  -6.434 -21.876  1.00  0.00    -0.271 OA
HETATM   28  N   UNL     1      12.705  -5.326 -21.589  1.00  0.00    -0.326 N 
HETATM   29  HN  UNL     1      13.164  -4.654 -20.986  1.00  0.00     0.169 HD
BRANCH  28  30
HETATM   30  C   UNL     1      13.314  -5.579 -22.844  1.00  0.00     0.037 A 
HETATM   31  C   UNL     1      14.183  -6.654 -23.063  1.00  0.00     0.029 A 
HETATM   32  C   UNL     1      14.737  -6.884 -24.326  1.00  0.00     0.005 A 
HETATM   33  C   UNL     1      14.433  -6.035 -25.384  1.00  0.00     0.042 A 
HETATM   34  C   UNL     1      13.590  -4.949 -25.161  1.00  0.00     0.118 A 
HETATM   35  C   UNL     1      13.040  -4.708 -23.903  1.00  0.00     0.071 A 
HETATM   36  F   UNL     1      13.295  -4.131 -26.178  1.00  0.00    -0.206 F 
ENDBRANCH  28  30
ENDBRANCH  25  26
ENDBRANCH  16  25
ENDBRANCH   4  13
TORSDOF 6
ENDMDL
MODEL 4
REMARK VINA RESULT:      -7.7      3.456      5.642
REMARK  6 active torsions:
REMARK  status: ('A' for Active; 'I' for Inactive)
REMARK       I    between atoms: C_2  and  N_4 
REMARK    1  A    between atoms: N_4  and  C_5 
REMARK    2  A    between atoms: N_4  and  C_13 
REMARK    3  A    between atoms: C_5  and  C_6 
REMARK    4  A    between atoms: N_16  and  C_17 
REMARK    5  A    between atoms: C_17  and  C_18 
REMARK       I    between atoms: C_18  and  N_20 
REMARK    6  A    between atoms: N_20  and  C_21 
ROOT
HETATM    1  C   UNL     1      14.968  -0.272 -15.106  1.00  0.00     0.117 C 
HETATM    2  C   UNL     1      14.855  -1.331 -16.181  1.00  0.00     0.221 C 
HETATM    3  O   UNL     1      14.617  -2.495 -15.847  1.00  0.00    -0.273 OA
HETATM    4  N   UNL     1      15.010  -0.945 -17.521  1.00  0.00    -0.295 N 
ENDROOT
BRANCH   4   5
HETATM    5  C   UNL     1      14.943  -2.047 -18.497  1.00  0.00     0.174 C 
BRANCH   5   6
HETATM    6  C   UNL     1      13.643  -2.249 -19.256  1.00  0.00    -0.018 A 
HETATM    7  C   UNL     1      12.415  -1.764 -18.780  1.00  0.00     0.010 A 
HETATM    8  C   UNL     1      11.251  -1.854 -19.557  1.00  0.00     0.001 A 
HETATM    9  C   UNL     1      11.292  -2.443 -20.816  1.00  0.00     0.002 A 
HETATM   10  C   UNL     1      12.493  -2.952 -21.300  1.00  0.00     0.024 A 
HETATM   11  C   UNL     1      13.657  -2.853 -20.530  1.00  0.00     0.042 A 
HETATM   12 CL   UNL     1      15.114  -3.478 -21.229  1.00  0.00    -0.084 Cl
ENDBRANCH   5   6
ENDBRANCH   4   5
BRANCH   4  13
HETATM   13  C   UNL     1      15.565   0.282 -17.930  1.00  0.00     0.180 A 
HETATM   14  C   UNL     1      17.088   0.469 -17.821  1.00  0.00     0.293 A 
HETATM   15  O   UNL     1      17.801  -0.465 -17.478  1.00  0.00    -0.264 OA
HETATM   16  N   UNL     1      17.587   1.723 -18.172  1.00  0.00    -0.300 N 
HETATM   17  C   UNL     1      16.727   2.722 -18.706  1.00  0.00     0.065 A 
HETATM   18  C   UNL     1      17.194   3.971 -19.142  1.00  0.00     0.032 A 
HETATM   19  C   UNL     1      15.358   2.433 -18.809  1.00  0.00     0.061 A 
HETATM   20  C   UNL     1      16.313   4.902 -19.700  1.00  0.00     0.002 A 
HETATM   21  C   UNL     1      14.959   4.607 -19.809  1.00  0.00     0.002 A 
HETATM   22  C   UNL     1      14.484   3.379 -19.355  1.00  0.00     0.032 A 
HETATM   23  N   UNL     1      14.804   1.219 -18.396  1.00  0.00    -0.336 N 
HETATM   24  HN  UNL     1      13.797   1.070 -18.462  1.00  0.00     0.168 HD
BRANCH  16  25
HETATM   25  C   UNL     1      19.030   1.908 -18.104  1.00  0.00     0.235 C 
BRANCH  25  26
HETATM   26  C   UNL     1      19.828   1.406 -19.311  1.00  0.00     0.240 C 
HETATM   27  O   UNL     1      20.147   2.216 -20.182  1.00  0.00    -0.271 OA
HETATM   28  N   UNL     1      20.183   0.070 -19.292  1.00  0.00    -0.326 N 
HETATM   29  HN  UNL     1      20.031  -0.435 -18.427  1.00  0.00     0.169 HD
BRANCH  28  30
HETATM   30  C   UNL     1      20.875  -0.620 -20.320  1.00  0.00     0.037 A 
HETATM   31  C   UNL     1      20.295  -0.915 -21.560  1.00  0.00     0.029 A 
HETATM   32  C   UNL     1      21.025  -1.570 -22.557  1.00  0.00     0.005 A 
HETATM   33  C   UNL     1      22.342  -1.945 -22.321  1.00  0.00     0.042 A 
HETATM   34  C   UNL     1      22.912  -1.677 -21.079  1.00  0.00     0.118 A 
HETATM   35  C   UNL     1      22.189  -1.031 -20.077  1.00  0.00     0.071 A 
HETATM   36  F   UNL     1      24.180  -2.036 -20.850  1.00  0.00    -0.206 F 
ENDBRANCH  28  30
ENDBRANCH  25  26
ENDBRANCH  16  25
ENDBRANCH   4  13
TORSDOF 6
ENDMDL
MODEL 5
REMARK VINA RESULT:      -7.6      2.527      5.253
REMARK  6 active torsions:
REMARK  status: ('A' for Active; 'I' for Inactive)
REMARK       I    between atoms: C_2  and  N_4 
REMARK    1  A    between atoms: N_4  and  C_5 
REMARK    2  A    between atoms: N_4  and  C_13 
REMARK    3  A    between atoms: C_5  and  C_6 
REMARK    4  A    between atoms: N_16  and  C_17 
REMARK    5  A    between atoms: C_17  and  C_18 
REMARK       I    between atoms: C_18  and  N_20 
REMARK    6  A    between atoms: N_20  and  C_21 
ROOT
HETATM    1  C   UNL     1      15.971  -7.567 -19.170  1.00  0.00     0.117 C 
HETATM    2  C   UNL     1      15.454  -7.796 -17.766  1.00  0.00     0.221 C 
HETATM    3  O   UNL     1      15.604  -8.907 -17.251  1.00  0.00    -0.273 OA
HETATM    4  N   UNL     1      14.838  -6.728 -17.097  1.00  0.00    -0.295 N 
ENDROOT
BRANCH   4   5
HETATM    5  C   UNL     1      14.313  -7.054 -15.759  1.00  0.00     0.174 C 
BRANCH   5   6
HETATM    6  C   UNL     1      14.100  -5.912 -14.780  1.00  0.00    -0.018 A 
HETATM    7  C   UNL     1      12.823  -5.426 -14.463  1.00  0.00     0.010 A 
HETATM    8  C   UNL     1      12.645  -4.457 -13.465  1.00  0.00     0.001 A 
HETATM    9  C   UNL     1      13.741  -3.948 -12.777  1.00  0.00     0.002 A 
HETATM   10  C   UNL     1      15.019  -4.398 -13.090  1.00  0.00     0.024 A 
HETATM   11  C   UNL     1      15.198  -5.372 -14.078  1.00  0.00     0.042 A 
HETATM   12 CL   UNL     1      16.821  -5.900 -14.373  1.00  0.00    -0.084 Cl
ENDBRANCH   5   6
ENDBRANCH   4   5
BRANCH   4  13
HETATM   13  C   UNL     1      14.384  -5.556 -17.730  1.00  0.00     0.180 A 
HETATM   14  C   UNL     1      15.356  -4.370 -17.857  1.00  0.00     0.293 A 
HETATM   15  O   UNL     1      16.521  -4.486 -17.500  1.00  0.00    -0.264 OA
HETATM   16  N   UNL     1      14.843  -3.206 -18.429  1.00  0.00    -0.300 N 
HETATM   17  C   UNL     1      13.524  -3.179 -18.962  1.00  0.00     0.065 A 
HETATM   18  C   UNL     1      12.991  -2.057 -19.612  1.00  0.00     0.032 A 
HETATM   19  C   UNL     1      12.735  -4.333 -18.837  1.00  0.00     0.061 A 
HETATM   20  C   UNL     1      11.704  -2.097 -20.156  1.00  0.00     0.002 A 
HETATM   21  C   UNL     1      10.930  -3.245 -20.039  1.00  0.00     0.002 A 
HETATM   22  C   UNL     1      11.443  -4.354 -19.371  1.00  0.00     0.032 A 
HETATM   23  N   UNL     1      13.181  -5.494 -18.201  1.00  0.00    -0.336 N 
HETATM   24  HN  UNL     1      12.556  -6.295 -18.108  1.00  0.00     0.168 HD
BRANCH  16  25
HETATM   25  C   UNL     1      15.757  -2.083 -18.585  1.00  0.00     0.235 C 
BRANCH  25  26
HETATM   26  C   UNL     1      16.794  -2.213 -19.705  1.00  0.00     0.240 C 
HETATM   27  O   UNL     1      16.474  -2.807 -20.735  1.00  0.00    -0.271 OA
HETATM   28  N   UNL     1      18.009  -1.589 -19.485  1.00  0.00    -0.326 N 
HETATM   29  HN  UNL     1      18.070  -0.970 -18.686  1.00  0.00     0.169 HD
BRANCH  28  30
HETATM   30  C   UNL     1      19.127  -1.620 -20.356  1.00  0.00     0.037 A 
HETATM   31  C   UNL     1      19.117  -1.031 -21.626  1.00  0.00     0.029 A 
HETATM   32  C   UNL     1      20.254  -1.058 -22.440  1.00  0.00     0.005 A 
HETATM   33  C   UNL     1      21.413  -1.682 -21.994  1.00  0.00     0.042 A 
HETATM   34  C   UNL     1      21.417  -2.291 -20.741  1.00  0.00     0.118 A 
HETATM   35  C   UNL     1      20.285  -2.275 -19.927  1.00  0.00     0.071 A 
HETATM   36  F   UNL     1      22.532  -2.891 -20.309  1.00  0.00    -0.206 F 
ENDBRANCH  28  30
ENDBRANCH  25  26
ENDBRANCH  16  25
ENDBRANCH   4  13
TORSDOF 6
ENDMDL
MODEL 6
REMARK VINA RESULT:      -7.5      3.025      4.255
REMARK  6 active torsions:
REMARK  status: ('A' for Active; 'I' for Inactive)
REMARK       I    between atoms: C_2  and  N_4 
REMARK    1  A    between atoms: N_4  and  C_5 
REMARK    2  A    between atoms: N_4  and  C_13 
REMARK    3  A    between atoms: C_5  and  C_6 
REMARK    4  A    between atoms: N_16  and  C_17 
REMARK    5  A    between atoms: C_17  and  C_18 
REMARK       I    between atoms: C_18  and  N_20 
REMARK    6  A    between atoms: N_20  and  C_21 
ROOT
HETATM    1  C   UNL     1      17.150  -5.640 -13.776  1.00  0.00     0.117 C 
HETATM    2  C   UNL     1      15.729  -5.201 -14.052  1.00  0.00     0.221 C 
HETATM    3  O   UNL     1      14.920  -5.182 -13.120  1.00  0.00    -0.273 OA
HETATM    4  N   UNL     1      15.388  -4.816 -15.357  1.00  0.00    -0.295 N 
ENDROOT
BRANCH   4   5
HETATM    5  C   UNL     1      13.971  -4.459 -15.550  1.00  0.00     0.174 C 
BRANCH   5   6
HETATM    6  C   UNL     1      13.655  -3.177 -16.300  1.00  0.00    -0.018 A 
HETATM    7  C   UNL     1      13.230  -3.176 -17.638  1.00  0.00     0.010 A 
HETATM    8  C   UNL     1      12.826  -1.991 -18.268  1.00  0.00     0.001 A 
HETATM    9  C   UNL     1      12.852  -0.784 -17.577  1.00  0.00     0.002 A 
HETATM   10  C   UNL     1      13.291  -0.756 -16.257  1.00  0.00     0.024 A 
HETATM   11  C   UNL     1      13.686  -1.940 -15.624  1.00  0.00     0.042 A 
HETATM   12 CL   UNL     1      14.180  -1.815 -13.969  1.00  0.00    -0.084 Cl
ENDBRANCH   5   6
ENDBRANCH   4   5
BRANCH   4  13
HETATM   13  C   UNL     1      16.171  -5.095 -16.492  1.00  0.00     0.180 A 
HETATM   14  C   UNL     1      17.093  -3.991 -17.036  1.00  0.00     0.293 A 
HETATM   15  O   UNL     1      17.209  -2.932 -16.433  1.00  0.00    -0.264 OA
HETATM   16  N   UNL     1      17.799  -4.289 -18.201  1.00  0.00    -0.300 N 
HETATM   17  C   UNL     1      17.739  -5.589 -18.774  1.00  0.00     0.065 A 
HETATM   18  C   UNL     1      18.487  -5.957 -19.902  1.00  0.00     0.032 A 
HETATM   19  C   UNL     1      16.902  -6.541 -18.172  1.00  0.00     0.061 A 
HETATM   20  C   UNL     1      18.425  -7.262 -20.399  1.00  0.00     0.002 A 
HETATM   21  C   UNL     1      17.602  -8.204 -19.793  1.00  0.00     0.002 A 
HETATM   22  C   UNL     1      16.836  -7.838 -18.689  1.00  0.00     0.032 A 
HETATM   23  N   UNL     1      16.117  -6.262 -17.050  1.00  0.00    -0.336 N 
HETATM   24  HN  UNL     1      15.501  -6.980 -16.669  1.00  0.00     0.168 HD
BRANCH  16  25
HETATM   25  C   UNL     1      18.701  -3.265 -18.714  1.00  0.00     0.235 C 
BRANCH  25  26
HETATM   26  C   UNL     1      18.034  -2.051 -19.369  1.00  0.00     0.240 C 
HETATM   27  O   UNL     1      17.547  -2.185 -20.491  1.00  0.00    -0.271 OA
HETATM   28  N   UNL     1      17.982  -0.900 -18.605  1.00  0.00    -0.326 N 
HETATM   29  HN  UNL     1      18.240  -0.983 -17.629  1.00  0.00     0.169 HD
BRANCH  28  30
HETATM   30  C   UNL     1      17.461   0.350 -19.023  1.00  0.00     0.037 A 
HETATM   31  C   UNL     1      18.096   1.159 -19.973  1.00  0.00     0.029 A 
HETATM   32  C   UNL     1      17.530   2.371 -20.379  1.00  0.00     0.005 A 
HETATM   33  C   UNL     1      16.323   2.792 -19.832  1.00  0.00     0.042 A 
HETATM   34  C   UNL     1      15.703   2.003 -18.868  1.00  0.00     0.118 A 
HETATM   35  C   UNL     1      16.265   0.796 -18.451  1.00  0.00     0.071 A 
HETATM   36  F   UNL     1      14.541   2.405 -18.341  1.00  0.00    -0.206 F 
ENDBRANCH  28  30
ENDBRANCH  25  26
ENDBRANCH  16  25
ENDBRANCH   4  13
TORSDOF 6
ENDMDL
MODEL 7
REMARK VINA RESULT:      -7.5      4.139      5.562
REMARK  6 active torsions:
REMARK  status: ('A' for Active; 'I' for Inactive)
REMARK       I    between atoms: C_2  and  N_4 
REMARK    1  A    between atoms: N_4  and  C_5 
REMARK    2  A    between atoms: N_4  and  C_13 
REMARK    3  A    between atoms: C_5  and  C_6 
REMARK    4  A    between atoms: N_16  and  C_17 
REMARK    5  A    between atoms: C_17  and  C_18 
REMARK       I    between atoms: C_18  and  N_20 
REMARK    6  A    between atoms: N_20  and  C_21 
ROOT
HETATM    1  C   UNL     1      13.772  -3.864 -12.841  1.00  0.00     0.117 C 
HETATM    2  C   UNL     1      13.621  -4.359 -14.263  1.00  0.00     0.221 C 
HETATM    3  O   UNL     1      12.739  -5.183 -14.516  1.00  0.00    -0.273 OA
HETATM    4  N   UNL     1      14.484  -3.848 -15.246  1.00  0.00    -0.295 N 
ENDROOT
BRANCH   4   5
HETATM    5  C   UNL     1      14.307  -4.427 -16.589  1.00  0.00     0.174 C 
BRANCH   5   6
HETATM    6  C   UNL     1      13.405  -3.694 -17.567  1.00  0.00    -0.018 A 
HETATM    7  C   UNL     1      13.640  -2.366 -17.954  1.00  0.00     0.010 A 
HETATM    8  C   UNL     1      12.867  -1.754 -18.950  1.00  0.00     0.001 A 
HETATM    9  C   UNL     1      11.836  -2.455 -19.568  1.00  0.00     0.002 A 
HETATM   10  C   UNL     1      11.569  -3.765 -19.186  1.00  0.00     0.024 A 
HETATM   11  C   UNL     1      12.346  -4.381 -18.198  1.00  0.00     0.042 A 
HETATM   12 CL   UNL     1      11.967  -6.027 -17.815  1.00  0.00    -0.084 Cl
ENDBRANCH   5   6
ENDBRANCH   4   5
BRANCH   4  13
HETATM   13  C   UNL     1      15.672  -3.149 -14.966  1.00  0.00     0.180 A 
HETATM   14  C   UNL     1      15.610  -1.617 -14.846  1.00  0.00     0.293 A 
HETATM   15  O   UNL     1      14.533  -1.037 -14.898  1.00  0.00    -0.264 OA
HETATM   16  N   UNL     1      16.822  -0.960 -14.636  1.00  0.00    -0.300 N 
HETATM   17  C   UNL     1      18.022  -1.698 -14.434  1.00  0.00     0.065 A 
HETATM   18  C   UNL     1      19.250  -1.085 -14.146  1.00  0.00     0.032 A 
HETATM   19  C   UNL     1      17.961  -3.097 -14.516  1.00  0.00     0.061 A 
HETATM   20  C   UNL     1      20.391  -1.858 -13.914  1.00  0.00     0.002 A 
HETATM   21  C   UNL     1      20.324  -3.245 -13.986  1.00  0.00     0.002 A 
HETATM   22  C   UNL     1      19.114  -3.859 -14.297  1.00  0.00     0.032 A 
HETATM   23  N   UNL     1      16.783  -3.792 -14.803  1.00  0.00    -0.336 N 
HETATM   24  HN  UNL     1      16.799  -4.809 -14.883  1.00  0.00     0.168 HD
BRANCH  16  25
HETATM   25  C   UNL     1      16.778   0.489 -14.489  1.00  0.00     0.235 C 
BRANCH  25  26
HETATM   26  C   UNL     1      16.986   1.299 -15.773  1.00  0.00     0.240 C 
HETATM   27  O   UNL     1      17.905   0.977 -16.527  1.00  0.00    -0.271 OA
HETATM   28  N   UNL     1      16.070   2.307 -16.011  1.00  0.00    -0.326 N 
HETATM   29  HN  UNL     1      15.252   2.335 -15.415  1.00  0.00     0.169 HD
BRANCH  28  30
HETATM   30  C   UNL     1      16.097   3.211 -17.103  1.00  0.00     0.037 A 
HETATM   31  C   UNL     1      16.812   4.414 -17.076  1.00  0.00     0.029 A 
HETATM   32  C   UNL     1      16.836   5.261 -18.188  1.00  0.00     0.005 A 
HETATM   33  C   UNL     1      16.136   4.917 -19.339  1.00  0.00     0.042 A 
HETATM   34  C   UNL     1      15.403   3.734 -19.359  1.00  0.00     0.118 A 
HETATM   35  C   UNL     1      15.368   2.887 -18.251  1.00  0.00     0.071 A 
HETATM   36  F   UNL     1      14.730   3.400 -20.466  1.00  0.00    -0.206 F 
ENDBRANCH  28  30
ENDBRANCH  25  26
ENDBRANCH  16  25
ENDBRANCH   4  13
TORSDOF 6
ENDMDL
MODEL 8
REMARK VINA RESULT:      -7.5      4.478      7.541
REMARK  6 active torsions:
REMARK  status: ('A' for Active; 'I' for Inactive)
REMARK       I    between atoms: C_2  and  N_4 
REMARK    1  A    between atoms: N_4  and  C_5 
REMARK    2  A    between atoms: N_4  and  C_13 
REMARK    3  A    between atoms: C_5  and  C_6 
REMARK    4  A    between atoms: N_16  and  C_17 
REMARK    5  A    between atoms: C_17  and  C_18 
REMARK       I    between atoms: C_18  and  N_20 
REMARK    6  A    between atoms: N_20  and  C_21 
ROOT
HETATM    1  C   UNL     1      13.645  -3.204 -14.260  1.00  0.00     0.117 C 
HETATM    2  C   UNL     1      14.979  -3.668 -14.805  1.00  0.00     0.221 C 
HETATM    3  O   UNL     1      15.986  -3.535 -14.105  1.00  0.00    -0.273 OA
HETATM    4  N   UNL     1      15.015  -4.249 -16.082  1.00  0.00    -0.295 N 
ENDROOT
BRANCH   4   5
HETATM    5  C   UNL     1      16.360  -4.619 -16.558  1.00  0.00     0.174 C 
BRANCH   5   6
HETATM    6  C   UNL     1      16.690  -6.096 -16.684  1.00  0.00    -0.018 A 
HETATM    7  C   UNL     1      17.047  -6.880 -15.577  1.00  0.00     0.010 A 
HETATM    8  C   UNL     1      17.226  -8.266 -15.699  1.00  0.00     0.001 A 
HETATM    9  C   UNL     1      17.063  -8.889 -16.932  1.00  0.00     0.002 A 
HETATM   10  C   UNL     1      16.730  -8.129 -18.048  1.00  0.00     0.024 A 
HETATM   11  C   UNL     1      16.542  -6.747 -17.926  1.00  0.00     0.042 A 
HETATM   12 CL   UNL     1      16.092  -5.888 -19.361  1.00  0.00    -0.084 Cl
ENDBRANCH   5   6
ENDBRANCH   4   5
BRANCH   4  13
HETATM   13  C   UNL     1      13.972  -4.156 -17.021  1.00  0.00     0.180 A 
HETATM   14  C   UNL     1      13.068  -5.382 -17.235  1.00  0.00     0.293 A 
HETATM   15  O   UNL     1      13.200  -6.376 -16.534  1.00  0.00    -0.264 OA
HETATM   16  N   UNL     1      12.091  -5.268 -18.224  1.00  0.00    -0.300 N 
HETATM   17  C   UNL     1      11.887  -4.036 -18.905  1.00  0.00     0.065 A 
HETATM   18  C   UNL     1      10.869  -3.852 -19.852  1.00  0.00     0.032 A 
HETATM   19  C   UNL     1      12.737  -2.962 -18.600  1.00  0.00     0.061 A 
HETATM   20  C   UNL     1      10.685  -2.607 -20.461  1.00  0.00     0.002 A 
HETATM   21  C   UNL     1      11.522  -1.543 -20.149  1.00  0.00     0.002 A 
HETATM   22  C   UNL     1      12.551  -1.726 -19.228  1.00  0.00     0.032 A 
HETATM   23  N   UNL     1      13.778  -3.055 -17.674  1.00  0.00    -0.336 N 
HETATM   24  HN  UNL     1      14.389  -2.254 -17.512  1.00  0.00     0.168 HD
BRANCH  16  25
HETATM   25  C   UNL     1      11.206  -6.409 -18.420  1.00  0.00     0.235 C 
BRANCH  25  26
HETATM   26  C   UNL     1      11.744  -7.529 -19.315  1.00  0.00     0.240 C 
HETATM   27  O   UNL     1      11.194  -7.731 -20.398  1.00  0.00    -0.271 OA
HETATM   28  N   UNL     1      12.863  -8.195 -18.850  1.00  0.00    -0.326 N 
HETATM   29  HN  UNL     1      13.332  -7.799 -18.044  1.00  0.00     0.169 HD
BRANCH  28  30
HETATM   30  C   UNL     1      13.499  -9.292 -19.484  1.00  0.00     0.037 A 
HETATM   31  C   UNL     1      14.401  -9.139 -20.543  1.00  0.00     0.029 A 
HETATM   32  C   UNL     1      15.030 -10.248 -21.118  1.00  0.00     0.005 A 
HETATM   33  C   UNL     1      14.756 -11.525 -20.644  1.00  0.00     0.042 A 
HETATM   34  C   UNL     1      13.840 -11.682 -19.607  1.00  0.00     0.118 A 
HETATM   35  C   UNL     1      13.203 -10.582 -19.034  1.00  0.00     0.071 A 
HETATM   36  F   UNL     1      13.576 -12.911 -19.148  1.00  0.00    -0.206 F 
ENDBRANCH  28  30
ENDBRANCH  25  26
ENDBRANCH  16  25
ENDBRANCH   4  13
TORSDOF 6
ENDMDL
MODEL 9
REMARK VINA RESULT:      -7.5      2.327      4.308
REMARK  6 active torsions:
REMARK  status: ('A' for Active; 'I' for Inactive)
REMARK       I    between atoms: C_2  and  N_4 
REMARK    1  A    between atoms: N_4  and  C_5 
REMARK    2  A    between atoms: N_4  and  C_13 
REMARK    3  A    between atoms: C_5  and  C_6 
REMARK    4  A    between atoms: N_16  and  C_17 
REMARK    5  A    between atoms: C_17  and  C_18 
REMARK       I    between atoms: C_18  and  N_20 
REMARK    6  A    between atoms: N_20  and  C_21 
ROOT
HETATM    1  C   UNL     1      13.627  -6.306 -15.243  1.00  0.00     0.117 C 
HETATM    2  C   UNL     1      13.364  -4.942 -14.645  1.00  0.00     0.221 C 
HETATM    3  O   UNL     1      12.714  -4.866 -13.599  1.00  0.00    -0.273 OA
HETATM    4  N   UNL     1      13.885  -3.813 -15.296  1.00  0.00    -0.295 N 
ENDROOT
BRANCH   4   5
HETATM    5  C   UNL     1      13.531  -2.522 -14.679  1.00  0.00     0.174 C 
BRANCH   5   6
HETATM    6  C   UNL     1      14.459  -1.342 -14.915  1.00  0.00    -0.018 A 
HETATM    7  C   UNL     1      15.692  -1.215 -14.257  1.00  0.00     0.010 A 
HETATM    8  C   UNL     1      16.584  -0.184 -14.584  1.00  0.00     0.001 A 
HETATM    9  C   UNL     1      16.254   0.745 -15.565  1.00  0.00     0.002 A 
HETATM   10  C   UNL     1      15.027   0.654 -16.215  1.00  0.00     0.024 A 
HETATM   11  C   UNL     1      14.140  -0.381 -15.897  1.00  0.00     0.042 A 
HETATM   12 CL   UNL     1      12.654  -0.439 -16.784  1.00  0.00    -0.084 Cl
ENDBRANCH   5   6
ENDBRANCH   4   5
BRANCH   4  13
HETATM   13  C   UNL     1      14.366  -3.816 -16.618  1.00  0.00     0.180 A 
HETATM   14  C   UNL     1      15.856  -4.117 -16.854  1.00  0.00     0.293 A 
HETATM   15  O   UNL     1      16.576  -4.439 -15.918  1.00  0.00    -0.264 OA
HETATM   16  N   UNL     1      16.304  -4.043 -18.172  1.00  0.00    -0.300 N 
HETATM   17  C   UNL     1      15.390  -3.811 -19.237  1.00  0.00     0.065 A 
HETATM   18  C   UNL     1      15.780  -3.801 -20.584  1.00  0.00     0.032 A 
HETATM   19  C   UNL     1      14.040  -3.596 -18.918  1.00  0.00     0.061 A 
HETATM   20  C   UNL     1      14.834  -3.611 -21.596  1.00  0.00     0.002 A 
HETATM   21  C   UNL     1      13.497  -3.408 -21.275  1.00  0.00     0.002 A 
HETATM   22  C   UNL     1      13.106  -3.391 -19.938  1.00  0.00     0.032 A 
HETATM   23  N   UNL     1      13.562  -3.583 -17.605  1.00  0.00    -0.336 N 
HETATM   24  HN  UNL     1      12.577  -3.390 -17.424  1.00  0.00     0.168 HD
BRANCH  16  25
HETATM   25  C   UNL     1      17.706  -4.354 -18.418  1.00  0.00     0.235 C 
BRANCH  25  26
HETATM   26  C   UNL     1      18.612  -3.161 -18.737  1.00  0.00     0.240 C 
HETATM   27  O   UNL     1      18.695  -2.251 -17.911  1.00  0.00    -0.271 OA
HETATM   28  N   UNL     1      19.322  -3.235 -19.921  1.00  0.00    -0.326 N 
HETATM   29  HN  UNL     1      19.314  -4.123 -20.407  1.00  0.00     0.169 HD
BRANCH  28  30
HETATM   30  C   UNL     1      20.177  -2.231 -20.440  1.00  0.00     0.037 A 
HETATM   31  C   UNL     1      19.730  -1.224 -21.304  1.00  0.00     0.029 A 
HETATM   32  C   UNL     1      20.602  -0.235 -21.768  1.00  0.00     0.005 A 
HETATM   33  C   UNL     1      21.936  -0.245 -21.376  1.00  0.00     0.042 A 
HETATM   34  C   UNL     1      22.389  -1.260 -20.538  1.00  0.00     0.118 A 
HETATM   35  C   UNL     1      21.527  -2.255 -20.077  1.00  0.00     0.071 A 
HETATM   36  F   UNL     1      23.672  -1.271 -20.158  1.00  0.00    -0.206 F 
ENDBRANCH  28  30
ENDBRANCH  25  26
ENDBRANCH  16  25
ENDBRANCH   4  13
TORSDOF 6
ENDMDL
