MODEL 1
REMARK VINA RESULT:      -8.3      0.000      0.000
REMARK  4 active torsions:
REMARK  status: ('A' for Active; 'I' for Inactive)
REMARK    1  A    between atoms: N_19  and  C_20 
REMARK    2  A    between atoms: C_25  and  O_26 
REMARK    3  A    between atoms: O_26  and  C_27 
REMARK    4  A    between atoms: C_27  and  C_29 
ROOT
HETATM    1  C   UNL     1      14.255  -6.296 -23.759  1.00  0.00     0.001 A 
HETATM    2  C   UNL     1      15.191  -7.289 -23.472  1.00  0.00     0.001 A 
HETATM    3  C   UNL     1      15.748  -7.401 -22.193  1.00  0.00     0.010 A 
HETATM    4  C   UNL     1      15.373  -6.508 -21.186  1.00  0.00    -0.025 A 
HETATM    5  C   UNL     1      14.474  -5.438 -21.518  1.00  0.00    -0.025 A 
HETATM    6  C   UNL     1      13.897  -5.365 -22.788  1.00  0.00     0.010 A 
HETATM    7  C   UNL     1      14.325  -4.410 -20.367  1.00  0.00     0.086 C 
HETATM    8  C   UNL     1      15.783  -3.972 -20.053  1.00  0.00    -0.025 A 
HETATM    9  C   UNL     1      16.363  -2.731 -20.326  1.00  0.00     0.010 A 
HETATM   10  C   UNL     1      17.735  -2.537 -20.126  1.00  0.00     0.001 A 
HETATM   11  C   UNL     1      18.539  -3.570 -19.646  1.00  0.00     0.001 A 
HETATM   12  C   UNL     1      18.000  -4.833 -19.425  1.00  0.00     0.010 A 
HETATM   13  C   UNL     1      16.641  -5.052 -19.667  1.00  0.00    -0.025 A 
HETATM   14  C   UNL     1      15.936  -6.412 -19.729  1.00  0.00     0.086 C 
HETATM   15  C   UNL     1      14.727  -6.339 -18.761  1.00  0.00     0.122 C 
HETATM   16  C   UNL     1      13.702  -5.282 -19.237  1.00  0.00     0.122 C 
HETATM   17  C   UNL     1      13.247  -4.621 -17.964  1.00  0.00     0.238 C 
HETATM   18  O   UNL     1      12.322  -3.820 -17.907  1.00  0.00    -0.272 OA
HETATM   19  N   UNL     1      14.017  -5.064 -16.920  1.00  0.00    -0.249 N 
HETATM   20  C   UNL     1      15.038  -5.889 -17.339  1.00  0.00     0.238 C 
HETATM   21  O   UNL     1      15.988  -6.285 -16.680  1.00  0.00    -0.272 OA
HETATM   22 BR   UNL     1      17.042  -7.946 -19.280  1.00  0.00    -0.074 Br
HETATM   23 BR   UNL     1      13.162  -2.926 -20.828  1.00  0.00    -0.074 Br
ENDROOT
BRANCH  19  24
HETATM   24  C   UNL     1      13.854  -4.583 -15.592  1.00  0.00     0.079 A 
HETATM   25  C   UNL     1      12.946  -5.208 -14.723  1.00  0.00     0.033 A 
HETATM   26  C   UNL     1      12.818  -4.789 -13.392  1.00  0.00     0.002 A 
HETATM   27  C   UNL     1      13.564  -3.720 -12.910  1.00  0.00     0.003 A 
HETATM   28  C   UNL     1      14.436  -3.053 -13.769  1.00  0.00     0.040 A 
HETATM   29  C   UNL     1      14.599  -3.491 -15.094  1.00  0.00     0.106 A 
BRANCH  29  30
HETATM   30  O   UNL     1      15.313  -2.678 -16.011  1.00  0.00    -0.271 OA
BRANCH  30  31
HETATM   31  C   UNL     1      15.143  -1.290 -15.953  1.00  0.00     0.322 C 
HETATM   32  O   UNL     1      15.837  -0.519 -15.299  1.00  0.00    -0.257 OA
BRANCH  31  33
HETATM   33  C   UNL     1      13.964  -0.897 -16.692  1.00  0.00     0.150 A 
HETATM   34  C   UNL     1      13.823  -0.502 -18.013  1.00  0.00     0.045 A 
HETATM   35  C   UNL     1      12.450  -0.229 -18.217  1.00  0.00     0.027 A 
HETATM   36  C   UNL     1      11.838  -0.428 -17.003  1.00  0.00     0.143 A 
HETATM   37  O   UNL     1      12.743  -0.827 -16.071  1.00  0.00    -0.317 OA
ENDBRANCH  31  33
ENDBRANCH  30  31
ENDBRANCH  29  30
ENDBRANCH  19  24
TORSDOF 4
ENDMDL
MODEL 2
REMARK VINA RESULT:      -8.3      3.238      6.487
REMARK  4 active torsions:
REMARK  status: ('A' for Active; 'I' for Inactive)
REMARK    1  A    between atoms: N_19  and  C_20 
REMARK    2  A    between atoms: C_25  and  O_26 
REMARK    3  A    between atoms: O_26  and  C_27 
REMARK    4  A    between atoms: C_27  and  C_29 
ROOT
HETATM    1  C   UNL     1      13.391  -5.129 -14.077  1.00  0.00     0.001 A 
HETATM    2  C   UNL     1      12.990  -5.949 -15.131  1.00  0.00     0.001 A 
HETATM    3  C   UNL     1      13.233  -5.581 -16.460  1.00  0.00     0.010 A 
HETATM    4  C   UNL     1      13.879  -4.375 -16.743  1.00  0.00    -0.025 A 
HETATM    5  C   UNL     1      14.211  -3.500 -15.653  1.00  0.00    -0.025 A 
HETATM    6  C   UNL     1      13.997  -3.902 -14.332  1.00  0.00     0.010 A 
HETATM    7  C   UNL     1      14.718  -2.118 -16.135  1.00  0.00     0.086 C 
HETATM    8  C   UNL     1      13.594  -1.602 -17.075  1.00  0.00    -0.025 A 
HETATM    9  C   UNL     1      12.704  -0.555 -16.823  1.00  0.00     0.010 A 
HETATM   10  C   UNL     1      11.642  -0.307 -17.700  1.00  0.00     0.001 A 
HETATM   11  C   UNL     1      11.459  -1.092 -18.839  1.00  0.00     0.001 A 
HETATM   12  C   UNL     1      12.292  -2.180 -19.081  1.00  0.00     0.010 A 
HETATM   13  C   UNL     1      13.327  -2.466 -18.187  1.00  0.00    -0.025 A 
HETATM   14  C   UNL     1      14.167  -3.748 -18.148  1.00  0.00     0.086 C 
HETATM   15  C   UNL     1      15.655  -3.314 -18.174  1.00  0.00     0.122 C 
HETATM   16  C   UNL     1      16.016  -2.504 -16.905  1.00  0.00     0.122 C 
HETATM   17  C   UNL     1      16.919  -1.414 -17.416  1.00  0.00     0.238 C 
HETATM   18  O   UNL     1      17.535  -0.645 -16.689  1.00  0.00    -0.272 OA
HETATM   19  N   UNL     1      16.936  -1.441 -18.787  1.00  0.00    -0.249 N 
HETATM   20  C   UNL     1      16.055  -2.369 -19.300  1.00  0.00     0.238 C 
HETATM   21  O   UNL     1      15.709  -2.496 -20.465  1.00  0.00    -0.272 OA
HETATM   22 BR   UNL     1      13.829  -5.011 -19.585  1.00  0.00    -0.074 Br
HETATM   23 BR   UNL     1      15.108  -0.905 -14.670  1.00  0.00    -0.074 Br
ENDROOT
BRANCH  19  24
HETATM   24  C   UNL     1      17.667  -0.501 -19.562  1.00  0.00     0.079 A 
HETATM   25  C   UNL     1      18.896  -0.864 -20.134  1.00  0.00     0.033 A 
HETATM   26  C   UNL     1      19.601   0.028 -20.953  1.00  0.00     0.002 A 
HETATM   27  C   UNL     1      19.115   1.309 -21.190  1.00  0.00     0.003 A 
HETATM   28  C   UNL     1      17.920   1.708 -20.593  1.00  0.00     0.040 A 
HETATM   29  C   UNL     1      17.188   0.807 -19.801  1.00  0.00     0.106 A 
BRANCH  29  30
HETATM   30  O   UNL     1      16.102   1.288 -19.026  1.00  0.00    -0.271 OA
BRANCH  30  31
HETATM   31  C   UNL     1      16.138   2.607 -18.563  1.00  0.00     0.322 C 
HETATM   32  O   UNL     1      16.842   3.017 -17.646  1.00  0.00    -0.257 OA
BRANCH  31  33
HETATM   33  C   UNL     1      15.148   3.408 -19.248  1.00  0.00     0.150 A 
HETATM   34  C   UNL     1      15.273   4.622 -19.904  1.00  0.00     0.045 A 
HETATM   35  C   UNL     1      13.991   4.959 -20.396  1.00  0.00     0.027 A 
HETATM   36  C   UNL     1      13.148   3.957 -19.978  1.00  0.00     0.143 A 
HETATM   37  O   UNL     1      13.834   3.015 -19.279  1.00  0.00    -0.317 OA
ENDBRANCH  31  33
ENDBRANCH  30  31
ENDBRANCH  29  30
ENDBRANCH  19  24
TORSDOF 4
ENDMDL
MODEL 3
REMARK VINA RESULT:      -8.1      2.086      4.751
REMARK  4 active torsions:
REMARK  status: ('A' for Active; 'I' for Inactive)
REMARK    1  A    between atoms: N_19  and  C_20 
REMARK    2  A    between atoms: C_25  and  O_26 
REMARK    3  A    between atoms: O_26  and  C_27 
REMARK    4  A    between atoms: C_27  and  C_29 
ROOT
HETATM    1  C   UNL     1      13.544  -5.218 -24.172  1.00  0.00     0.001 A 
HETATM    2  C   UNL     1      12.462  -4.357 -23.989  1.00  0.00     0.001 A 
HETATM    3  C   UNL     1      12.296  -3.659 -22.786  1.00  0.00     0.010 A 
HETATM    4  C   UNL     1      13.216  -3.828 -21.748  1.00  0.00    -0.025 A 
HETATM    5  C   UNL     1      14.277  -4.782 -21.919  1.00  0.00    -0.025 A 
HETATM    6  C   UNL     1      14.451  -5.438 -23.139  1.00  0.00     0.010 A 
HETATM    7  C   UNL     1      15.078  -5.016 -20.613  1.00  0.00     0.086 C 
HETATM    8  C   UNL     1      14.000  -5.410 -19.565  1.00  0.00    -0.025 A 
HETATM    9  C   UNL     1      13.801  -6.671 -18.999  1.00  0.00     0.010 A 
HETATM   10  C   UNL     1      12.688  -6.908 -18.185  1.00  0.00     0.001 A 
HETATM   11  C   UNL     1      11.767  -5.894 -17.920  1.00  0.00     0.001 A 
HETATM   12  C   UNL     1      11.908  -4.647 -18.521  1.00  0.00     0.010 A 
HETATM   13  C   UNL     1      12.989  -4.412 -19.373  1.00  0.00    -0.025 A 
HETATM   14  C   UNL     1      13.164  -3.212 -20.311  1.00  0.00     0.086 C 
HETATM   15  C   UNL     1      14.557  -2.602 -20.009  1.00  0.00     0.122 C 
HETATM   16  C   UNL     1      15.684  -3.605 -20.352  1.00  0.00     0.122 C 
HETATM   17  C   UNL     1      16.679  -3.428 -19.237  1.00  0.00     0.238 C 
HETATM   18  O   UNL     1      17.788  -3.947 -19.225  1.00  0.00    -0.272 OA
HETATM   19  N   UNL     1      16.146  -2.605 -18.278  1.00  0.00    -0.249 N 
HETATM   20  C   UNL     1      14.837  -2.269 -18.549  1.00  0.00     0.238 C 
HETATM   21  O   UNL     1      14.045  -1.714 -17.802  1.00  0.00    -0.272 OA
HETATM   22 BR   UNL     1      11.802  -1.834 -20.165  1.00  0.00    -0.074 Br
HETATM   23 BR   UNL     1      16.473  -6.351 -20.815  1.00  0.00    -0.074 Br
ENDROOT
BRANCH  19  24
HETATM   24  C   UNL     1      16.835  -2.285 -17.076  1.00  0.00     0.079 A 
HETATM   25  C   UNL     1      17.606  -1.115 -16.996  1.00  0.00     0.033 A 
HETATM   26  C   UNL     1      18.239  -0.750 -15.801  1.00  0.00     0.002 A 
HETATM   27  C   UNL     1      18.148  -1.558 -14.674  1.00  0.00     0.003 A 
HETATM   28  C   UNL     1      17.428  -2.750 -14.745  1.00  0.00     0.040 A 
HETATM   29  C   UNL     1      16.757  -3.104 -15.928  1.00  0.00     0.106 A 
BRANCH  29  30
HETATM   30  O   UNL     1      16.220  -4.411 -16.056  1.00  0.00    -0.271 OA
BRANCH  30  31
HETATM   31  C   UNL     1      16.063  -5.190 -14.905  1.00  0.00     0.322 C 
HETATM   32  O   UNL     1      16.851  -6.047 -14.517  1.00  0.00    -0.257 OA
BRANCH  31  33
HETATM   33  C   UNL     1      14.785  -4.920 -14.286  1.00  0.00     0.150 A 
HETATM   34  C   UNL     1      13.501  -5.224 -14.710  1.00  0.00     0.045 A 
HETATM   35  C   UNL     1      12.614  -4.731 -13.724  1.00  0.00     0.027 A 
HETATM   36  C   UNL     1      13.399  -4.116 -12.779  1.00  0.00     0.143 A 
HETATM   37  O   UNL     1      14.714  -4.218 -13.109  1.00  0.00    -0.317 OA
ENDBRANCH  31  33
ENDBRANCH  30  31
ENDBRANCH  29  30
ENDBRANCH  19  24
TORSDOF 4
ENDMDL
MODEL 4
REMARK VINA RESULT:      -8.1      3.431      7.345
REMARK  4 active torsions:
REMARK  status: ('A' for Active; 'I' for Inactive)
REMARK    1  A    between atoms: N_19  and  C_20 
REMARK    2  A    between atoms: C_25  and  O_26 
REMARK    3  A    between atoms: O_26  and  C_27 
REMARK    4  A    between atoms: C_27  and  C_29 
ROOT
HETATM    1  C   UNL     1      13.507  -5.197 -14.125  1.00  0.00     0.001 A 
HETATM    2  C   UNL     1      13.140  -6.011 -15.196  1.00  0.00     0.001 A 
HETATM    3  C   UNL     1      13.355  -5.598 -16.517  1.00  0.00     0.010 A 
HETATM    4  C   UNL     1      13.937  -4.354 -16.774  1.00  0.00    -0.025 A 
HETATM    5  C   UNL     1      14.231  -3.491 -15.664  1.00  0.00    -0.025 A 
HETATM    6  C   UNL     1      14.047  -3.935 -14.353  1.00  0.00     0.010 A 
HETATM    7  C   UNL     1      14.664  -2.072 -16.115  1.00  0.00     0.086 C 
HETATM    8  C   UNL     1      13.507  -1.592 -17.035  1.00  0.00    -0.025 A 
HETATM    9  C   UNL     1      12.567  -0.598 -16.752  1.00  0.00     0.010 A 
HETATM   10  C   UNL     1      11.488  -0.384 -17.617  1.00  0.00     0.001 A 
HETATM   11  C   UNL     1      11.337  -1.149 -18.773  1.00  0.00     0.001 A 
HETATM   12  C   UNL     1      12.223  -2.187 -19.048  1.00  0.00     0.010 A 
HETATM   13  C   UNL     1      13.277  -2.441 -18.167  1.00  0.00    -0.025 A 
HETATM   14  C   UNL     1      14.182  -3.678 -18.164  1.00  0.00     0.086 C 
HETATM   15  C   UNL     1      15.646  -3.168 -18.188  1.00  0.00     0.122 C 
HETATM   16  C   UNL     1      15.974  -2.372 -16.902  1.00  0.00     0.122 C 
HETATM   17  C   UNL     1      16.817  -1.226 -17.391  1.00  0.00     0.238 C 
HETATM   18  O   UNL     1      17.398  -0.444 -16.649  1.00  0.00    -0.272 OA
HETATM   19  N   UNL     1      16.825  -1.218 -18.762  1.00  0.00    -0.249 N 
HETATM   20  C   UNL     1      15.989  -2.177 -19.293  1.00  0.00     0.238 C 
HETATM   21  O   UNL     1      15.642  -2.293 -20.459  1.00  0.00    -0.272 OA
HETATM   22 BR   UNL     1      13.899  -4.921 -19.631  1.00  0.00    -0.074 Br
HETATM   23 BR   UNL     1      15.001  -0.878 -14.623  1.00  0.00    -0.074 Br
ENDROOT
BRANCH  19  24
HETATM   24  C   UNL     1      17.502  -0.223 -19.518  1.00  0.00     0.079 A 
HETATM   25  C   UNL     1      16.937   1.054 -19.668  1.00  0.00     0.033 A 
HETATM   26  C   UNL     1      17.619   2.066 -20.355  1.00  0.00     0.002 A 
HETATM   27  C   UNL     1      18.857   1.820 -20.936  1.00  0.00     0.003 A 
HETATM   28  C   UNL     1      19.415   0.546 -20.841  1.00  0.00     0.040 A 
HETATM   29  C   UNL     1      18.756  -0.465 -20.121  1.00  0.00     0.106 A 
BRANCH  29  30
HETATM   30  O   UNL     1      19.220  -1.801 -20.219  1.00  0.00    -0.271 OA
BRANCH  30  31
HETATM   31  C   UNL     1      20.229  -2.229 -19.350  1.00  0.00     0.322 C 
HETATM   32  O   UNL     1      20.070  -2.525 -18.170  1.00  0.00    -0.257 OA
BRANCH  31  33
HETATM   33  C   UNL     1      21.516  -2.171 -20.007  1.00  0.00     0.150 A 
HETATM   34  C   UNL     1      22.662  -1.468 -19.674  1.00  0.00     0.045 A 
HETATM   35  C   UNL     1      23.632  -1.771 -20.659  1.00  0.00     0.027 A 
HETATM   36  C   UNL     1      23.013  -2.605 -21.558  1.00  0.00     0.143 A 
HETATM   37  O   UNL     1      21.731  -2.851 -21.179  1.00  0.00    -0.317 OA
ENDBRANCH  31  33
ENDBRANCH  30  31
ENDBRANCH  29  30
ENDBRANCH  19  24
TORSDOF 4
ENDMDL
MODEL 5
REMARK VINA RESULT:      -8.1      1.881      4.795
REMARK  4 active torsions:
REMARK  status: ('A' for Active; 'I' for Inactive)
REMARK    1  A    between atoms: N_19  and  C_20 
REMARK    2  A    between atoms: C_25  and  O_26 
REMARK    3  A    between atoms: O_26  and  C_27 
REMARK    4  A    between atoms: C_27  and  C_29 
ROOT
HETATM    1  C   UNL     1      14.919  -7.010 -22.715  1.00  0.00     0.001 A 
HETATM    2  C   UNL     1      13.547  -6.796 -22.842  1.00  0.00     0.001 A 
HETATM    3  C   UNL     1      12.891  -5.850 -22.044  1.00  0.00     0.010 A 
HETATM    4  C   UNL     1      13.611  -5.112 -21.101  1.00  0.00    -0.025 A 
HETATM    5  C   UNL     1      15.006  -5.404 -20.920  1.00  0.00    -0.025 A 
HETATM    6  C   UNL     1      15.652  -6.321 -21.752  1.00  0.00     0.010 A 
HETATM    7  C   UNL     1      15.612  -4.667 -19.699  1.00  0.00     0.086 C 
HETATM    8  C   UNL     1      14.695  -5.072 -18.512  1.00  0.00    -0.025 A 
HETATM    9  C   UNL     1      15.024  -5.917 -17.448  1.00  0.00     0.010 A 
HETATM   10  C   UNL     1      14.040  -6.313 -16.536  1.00  0.00     0.001 A 
HETATM   11  C   UNL     1      12.724  -5.869 -16.666  1.00  0.00     0.001 A 
HETATM   12  C   UNL     1      12.356  -5.078 -17.750  1.00  0.00     0.010 A 
HETATM   13  C   UNL     1      13.319  -4.715 -18.694  1.00  0.00    -0.025 A 
HETATM   14  C   UNL     1      13.056  -4.080 -20.065  1.00  0.00     0.086 C 
HETATM   15  C   UNL     1      13.938  -2.807 -20.150  1.00  0.00     0.122 C 
HETATM   16  C   UNL     1      15.441  -3.174 -20.109  1.00  0.00     0.122 C 
HETATM   17  C   UNL     1      16.051  -2.101 -19.249  1.00  0.00     0.238 C 
HETATM   18  O   UNL     1      17.258  -1.958 -19.094  1.00  0.00    -0.272 OA
HETATM   19  N   UNL     1      15.056  -1.336 -18.699  1.00  0.00    -0.249 N 
HETATM   20  C   UNL     1      13.801  -1.822 -18.996  1.00  0.00     0.238 C 
HETATM   21  O   UNL     1      12.737  -1.476 -18.505  1.00  0.00    -0.272 OA
HETATM   22 BR   UNL     1      11.204  -3.617 -20.427  1.00  0.00    -0.074 Br
HETATM   23 BR   UNL     1      17.480  -5.103 -19.407  1.00  0.00    -0.074 Br
ENDROOT
BRANCH  19  24
HETATM   24  C   UNL     1      15.320  -0.266 -17.801  1.00  0.00     0.079 A 
HETATM   25  C   UNL     1      15.483   1.040 -18.288  1.00  0.00     0.033 A 
HETATM   26  C   UNL     1      15.680   2.116 -17.413  1.00  0.00     0.002 A 
HETATM   27  C   UNL     1      15.756   1.910 -16.041  1.00  0.00     0.003 A 
HETATM   28  C   UNL     1      15.646   0.614 -15.537  1.00  0.00     0.040 A 
HETATM   29  C   UNL     1      15.409  -0.466 -16.405  1.00  0.00     0.106 A 
BRANCH  29  30
HETATM   30  O   UNL     1      15.521  -1.790 -15.910  1.00  0.00    -0.271 OA
BRANCH  30  31
HETATM   31  C   UNL     1      14.426  -2.355 -15.248  1.00  0.00     0.322 C 
HETATM   32  O   UNL     1      13.286  -1.901 -15.248  1.00  0.00    -0.257 OA
BRANCH  31  33
HETATM   33  C   UNL     1      14.845  -3.499 -14.469  1.00  0.00     0.150 A 
HETATM   34  C   UNL     1      14.196  -4.177 -13.450  1.00  0.00     0.045 A 
HETATM   35  C   UNL     1      15.056  -5.221 -13.036  1.00  0.00     0.027 A 
HETATM   36  C   UNL     1      16.196  -5.096 -13.792  1.00  0.00     0.143 A 
HETATM   37  O   UNL     1      16.084  -4.055 -14.659  1.00  0.00    -0.317 OA
ENDBRANCH  31  33
ENDBRANCH  30  31
ENDBRANCH  29  30
ENDBRANCH  19  24
TORSDOF 4
ENDMDL
MODEL 6
REMARK VINA RESULT:      -8.0      3.199      6.824
REMARK  4 active torsions:
REMARK  status: ('A' for Active; 'I' for Inactive)
REMARK    1  A    between atoms: N_19  and  C_20 
REMARK    2  A    between atoms: C_25  and  O_26 
REMARK    3  A    between atoms: O_26  and  C_27 
REMARK    4  A    between atoms: C_27  and  C_29 
ROOT
HETATM    1  C   UNL     1      13.198  -5.062 -14.193  1.00  0.00     0.001 A 
HETATM    2  C   UNL     1      12.947  -5.927 -15.258  1.00  0.00     0.001 A 
HETATM    3  C   UNL     1      13.258  -5.556 -16.572  1.00  0.00     0.010 A 
HETATM    4  C   UNL     1      13.820  -4.303 -16.830  1.00  0.00    -0.025 A 
HETATM    5  C   UNL     1      13.993  -3.390 -15.735  1.00  0.00    -0.025 A 
HETATM    6  C   UNL     1      13.715  -3.791 -14.426  1.00  0.00     0.010 A 
HETATM    7  C   UNL     1      14.417  -1.975 -16.205  1.00  0.00     0.086 C 
HETATM    8  C   UNL     1      13.327  -1.569 -17.235  1.00  0.00    -0.025 A 
HETATM    9  C   UNL     1      12.336  -0.599 -17.070  1.00  0.00     0.010 A 
HETATM   10  C   UNL     1      11.326  -0.454 -18.028  1.00  0.00     0.001 A 
HETATM   11  C   UNL     1      11.296  -1.267 -19.161  1.00  0.00     0.001 A 
HETATM   12  C   UNL     1      12.234  -2.282 -19.321  1.00  0.00     0.010 A 
HETATM   13  C   UNL     1      13.219  -2.467 -18.347  1.00  0.00    -0.025 A 
HETATM   14  C   UNL     1      14.159  -3.672 -18.221  1.00  0.00     0.086 C 
HETATM   15  C   UNL     1      15.603  -3.113 -18.145  1.00  0.00     0.122 C 
HETATM   16  C   UNL     1      15.797  -2.259 -16.869  1.00  0.00     0.122 C 
HETATM   17  C   UNL     1      16.641  -1.102 -17.333  1.00  0.00     0.238 C 
HETATM   18  O   UNL     1      17.134  -0.274 -16.577  1.00  0.00    -0.272 OA
HETATM   19  N   UNL     1      16.763  -1.145 -18.698  1.00  0.00    -0.249 N 
HETATM   20  C   UNL     1      16.005  -2.151 -19.257  1.00  0.00     0.238 C 
HETATM   21  O   UNL     1      15.760  -2.323 -20.441  1.00  0.00    -0.272 OA
HETATM   22 BR   UNL     1      14.038  -4.977 -19.655  1.00  0.00    -0.074 Br
HETATM   23 BR   UNL     1      14.592  -0.715 -14.739  1.00  0.00    -0.074 Br
ENDROOT
BRANCH  19  24
HETATM   24  C   UNL     1      17.469  -0.156 -19.434  1.00  0.00     0.079 A 
HETATM   25  C   UNL     1      16.879   1.093 -19.682  1.00  0.00     0.033 A 
HETATM   26  C   UNL     1      17.583   2.103 -20.351  1.00  0.00     0.002 A 
HETATM   27  C   UNL     1      18.873   1.879 -20.817  1.00  0.00     0.003 A 
HETATM   28  C   UNL     1      19.462   0.629 -20.625  1.00  0.00     0.040 A 
HETATM   29  C   UNL     1      18.777  -0.376 -19.921  1.00  0.00     0.106 A 
BRANCH  29  30
HETATM   30  O   UNL     1      19.290  -1.699 -19.926  1.00  0.00    -0.271 OA
BRANCH  30  31
HETATM   31  C   UNL     1      20.407  -1.989 -19.136  1.00  0.00     0.322 C 
HETATM   32  O   UNL     1      21.572  -1.970 -19.522  1.00  0.00    -0.257 OA
BRANCH  31  33
HETATM   33  C   UNL     1      19.993  -2.423 -17.820  1.00  0.00     0.150 A 
HETATM   34  C   UNL     1      19.285  -3.548 -17.428  1.00  0.00     0.045 A 
HETATM   35  C   UNL     1      19.154  -3.482 -16.022  1.00  0.00     0.027 A 
HETATM   36  C   UNL     1      19.748  -2.304 -15.639  1.00  0.00     0.143 A 
HETATM   37  O   UNL     1      20.255  -1.651 -16.717  1.00  0.00    -0.317 OA
ENDBRANCH  31  33
ENDBRANCH  30  31
ENDBRANCH  29  30
ENDBRANCH  19  24
TORSDOF 4
ENDMDL
MODEL 7
REMARK VINA RESULT:      -8.0      2.266      5.138
REMARK  4 active torsions:
REMARK  status: ('A' for Active; 'I' for Inactive)
REMARK    1  A    between atoms: N_19  and  C_20 
REMARK    2  A    between atoms: C_25  and  O_26 
REMARK    3  A    between atoms: O_26  and  C_27 
REMARK    4  A    between atoms: C_27  and  C_29 
ROOT
HETATM    1  C   UNL     1      13.695  -5.205 -24.441  1.00  0.00     0.001 A 
HETATM    2  C   UNL     1      12.571  -4.384 -24.340  1.00  0.00     0.001 A 
HETATM    3  C   UNL     1      12.287  -3.699 -23.153  1.00  0.00     0.010 A 
HETATM    4  C   UNL     1      13.130  -3.838 -22.047  1.00  0.00    -0.025 A 
HETATM    5  C   UNL     1      14.234  -4.753 -22.136  1.00  0.00    -0.025 A 
HETATM    6  C   UNL     1      14.526  -5.397 -23.340  1.00  0.00     0.010 A 
HETATM    7  C   UNL     1      14.940  -4.964 -20.772  1.00  0.00     0.086 C 
HETATM    8  C   UNL     1      13.799  -5.401 -19.812  1.00  0.00    -0.025 A 
HETATM    9  C   UNL     1      13.603  -6.672 -19.266  1.00  0.00     0.010 A 
HETATM   10  C   UNL     1      12.440  -6.953 -18.541  1.00  0.00     0.001 A 
HETATM   11  C   UNL     1      11.465  -5.974 -18.346  1.00  0.00     0.001 A 
HETATM   12  C   UNL     1      11.605  -4.720 -18.932  1.00  0.00     0.010 A 
HETATM   13  C   UNL     1      12.740  -4.442 -19.698  1.00  0.00    -0.025 A 
HETATM   14  C   UNL     1      12.944  -3.232 -20.616  1.00  0.00     0.086 C 
HETATM   15  C   UNL     1      14.286  -2.573 -20.206  1.00  0.00     0.122 C 
HETATM   16  C   UNL     1      15.472  -3.533 -20.462  1.00  0.00     0.122 C 
HETATM   17  C   UNL     1      16.370  -3.324 -19.273  1.00  0.00     0.238 C 
HETATM   18  O   UNL     1      17.493  -3.803 -19.176  1.00  0.00    -0.272 OA
HETATM   19  N   UNL     1      15.735  -2.527 -18.357  1.00  0.00    -0.249 N 
HETATM   20  C   UNL     1      14.440  -2.237 -18.728  1.00  0.00     0.238 C 
HETATM   21  O   UNL     1      13.572  -1.715 -18.044  1.00  0.00    -0.272 OA
HETATM   22 BR   UNL     1      11.524  -1.905 -20.574  1.00  0.00    -0.074 Br
HETATM   23 BR   UNL     1      16.394  -6.246 -20.867  1.00  0.00    -0.074 Br
ENDROOT
BRANCH  19  24
HETATM   24  C   UNL     1      16.316  -2.187 -17.105  1.00  0.00     0.079 A 
HETATM   25  C   UNL     1      17.021  -0.982 -16.959  1.00  0.00     0.033 A 
HETATM   26  C   UNL     1      17.546  -0.601 -15.717  1.00  0.00     0.002 A 
HETATM   27  C   UNL     1      17.411  -1.425 -14.606  1.00  0.00     0.003 A 
HETATM   28  C   UNL     1      16.756  -2.649 -14.739  1.00  0.00     0.040 A 
HETATM   29  C   UNL     1      16.193  -3.022 -15.971  1.00  0.00     0.106 A 
BRANCH  29  30
HETATM   30  O   UNL     1      15.731  -4.351 -16.150  1.00  0.00    -0.271 OA
BRANCH  30  31
HETATM   31  C   UNL     1      16.669  -5.387 -16.207  1.00  0.00     0.322 C 
HETATM   32  O   UNL     1      17.886  -5.240 -16.227  1.00  0.00    -0.257 OA
BRANCH  31  33
HETATM   33  C   UNL     1      16.001  -6.662 -16.347  1.00  0.00     0.150 A 
HETATM   34  C   UNL     1      14.871  -7.157 -15.715  1.00  0.00     0.045 A 
HETATM   35  C   UNL     1      14.652  -8.459 -16.222  1.00  0.00     0.027 A 
HETATM   36  C   UNL     1      15.680  -8.702 -17.100  1.00  0.00     0.143 A 
HETATM   37  O   UNL     1      16.506  -7.626 -17.181  1.00  0.00    -0.317 OA
ENDBRANCH  31  33
ENDBRANCH  30  31
ENDBRANCH  29  30
ENDBRANCH  19  24
TORSDOF 4
ENDMDL
MODEL 8
REMARK VINA RESULT:      -8.0      1.370      2.417
REMARK  4 active torsions:
REMARK  status: ('A' for Active; 'I' for Inactive)
REMARK    1  A    between atoms: N_19  and  C_20 
REMARK    2  A    between atoms: C_25  and  O_26 
REMARK    3  A    between atoms: O_26  and  C_27 
REMARK    4  A    between atoms: C_27  and  C_29 
ROOT
HETATM    1  C   UNL     1      14.181  -6.346 -23.775  1.00  0.00     0.001 A 
HETATM    2  C   UNL     1      15.098  -7.354 -23.479  1.00  0.00     0.001 A 
HETATM    3  C   UNL     1      15.656  -7.465 -22.200  1.00  0.00     0.010 A 
HETATM    4  C   UNL     1      15.301  -6.553 -21.202  1.00  0.00    -0.025 A 
HETATM    5  C   UNL     1      14.423  -5.469 -21.543  1.00  0.00    -0.025 A 
HETATM    6  C   UNL     1      13.844  -5.397 -22.813  1.00  0.00     0.010 A 
HETATM    7  C   UNL     1      14.298  -4.426 -20.403  1.00  0.00     0.086 C 
HETATM    8  C   UNL     1      15.764  -4.014 -20.097  1.00  0.00    -0.025 A 
HETATM    9  C   UNL     1      16.369  -2.788 -20.384  1.00  0.00     0.010 A 
HETATM   10  C   UNL     1      17.744  -2.620 -20.189  1.00  0.00     0.001 A 
HETATM   11  C   UNL     1      18.529  -3.664 -19.699  1.00  0.00     0.001 A 
HETATM   12  C   UNL     1      17.964  -4.914 -19.464  1.00  0.00     0.010 A 
HETATM   13  C   UNL     1      16.601  -5.108 -19.701  1.00  0.00    -0.025 A 
HETATM   14  C   UNL     1      15.869  -6.454 -19.747  1.00  0.00     0.086 C 
HETATM   15  C   UNL     1      14.664  -6.346 -18.778  1.00  0.00     0.122 C 
HETATM   16  C   UNL     1      13.660  -5.274 -19.263  1.00  0.00     0.122 C 
HETATM   17  C   UNL     1      13.220  -4.590 -17.996  1.00  0.00     0.238 C 
HETATM   18  O   UNL     1      12.312  -3.770 -17.946  1.00  0.00    -0.272 OA
HETATM   19  N   UNL     1      13.983  -5.037 -16.949  1.00  0.00    -0.249 N 
HETATM   20  C   UNL     1      14.986  -5.888 -17.361  1.00  0.00     0.238 C 
HETATM   21  O   UNL     1      15.930  -6.296 -16.700  1.00  0.00    -0.272 OA
HETATM   22 BR   UNL     1      16.944  -8.005 -19.285  1.00  0.00    -0.074 Br
HETATM   23 BR   UNL     1      13.164  -2.924 -20.878  1.00  0.00    -0.074 Br
ENDROOT
BRANCH  19  24
HETATM   24  C   UNL     1      13.833  -4.540 -15.626  1.00  0.00     0.079 A 
HETATM   25  C   UNL     1      12.992  -5.200 -14.716  1.00  0.00     0.033 A 
HETATM   26  C   UNL     1      12.881  -4.762 -13.390  1.00  0.00     0.002 A 
HETATM   27  C   UNL     1      13.575  -3.640 -12.953  1.00  0.00     0.003 A 
HETATM   28  C   UNL     1      14.378  -2.940 -13.852  1.00  0.00     0.040 A 
HETATM   29  C   UNL     1      14.526  -3.395 -15.173  1.00  0.00     0.106 A 
BRANCH  29  30
HETATM   30  O   UNL     1      15.160  -2.559 -16.128  1.00  0.00    -0.271 OA
BRANCH  30  31
HETATM   31  C   UNL     1      16.209  -1.735 -15.709  1.00  0.00     0.322 C 
HETATM   32  O   UNL     1      16.172  -0.509 -15.662  1.00  0.00    -0.257 OA
BRANCH  31  33
HETATM   33  C   UNL     1      17.390  -2.524 -15.435  1.00  0.00     0.150 A 
HETATM   34  C   UNL     1      17.999  -3.515 -16.187  1.00  0.00     0.045 A 
HETATM   35  C   UNL     1      19.125  -3.957 -15.452  1.00  0.00     0.027 A 
HETATM   36  C   UNL     1      19.115  -3.244 -14.278  1.00  0.00     0.143 A 
HETATM   37  O   UNL     1      18.068  -2.377 -14.253  1.00  0.00    -0.317 OA
ENDBRANCH  31  33
ENDBRANCH  30  31
ENDBRANCH  29  30
ENDBRANCH  19  24
TORSDOF 4
ENDMDL
MODEL 9
REMARK VINA RESULT:      -8.0      2.621      6.176
REMARK  4 active torsions:
REMARK  status: ('A' for Active; 'I' for Inactive)
REMARK    1  A    between atoms: N_19  and  C_20 
REMARK    2  A    between atoms: C_25  and  O_26 
REMARK    3  A    between atoms: O_26  and  C_27 
REMARK    4  A    between atoms: C_27  and  C_29 
ROOT
HETATM    1  C   UNL     1      16.415   1.933 -19.075  1.00  0.00     0.001 A 
HETATM    2  C   UNL     1      15.261   2.077 -18.306  1.00  0.00     0.001 A 
HETATM    3  C   UNL     1      14.641   0.963 -17.727  1.00  0.00     0.010 A 
HETATM    4  C   UNL     1      15.173  -0.314 -17.922  1.00  0.00    -0.025 A 
HETATM    5  C   UNL     1      16.312  -0.458 -18.786  1.00  0.00    -0.025 A 
HETATM    6  C   UNL     1      16.942   0.668 -19.323  1.00  0.00     0.010 A 
HETATM    7  C   UNL     1      16.650  -1.942 -19.078  1.00  0.00     0.086 C 
HETATM    8  C   UNL     1      15.325  -2.537 -19.631  1.00  0.00    -0.025 A 
HETATM    9  C   UNL     1      15.064  -2.926 -20.947  1.00  0.00     0.010 A 
HETATM   10  C   UNL     1      13.770  -3.299 -21.326  1.00  0.00     0.001 A 
HETATM   11  C   UNL     1      12.726  -3.295 -20.401  1.00  0.00     0.001 A 
HETATM   12  C   UNL     1      12.944  -2.852 -19.100  1.00  0.00     0.010 A 
HETATM   13  C   UNL     1      14.221  -2.432 -18.722  1.00  0.00    -0.025 A 
HETATM   14  C   UNL     1      14.589  -1.682 -17.437  1.00  0.00     0.086 C 
HETATM   15  C   UNL     1      15.740  -2.473 -16.765  1.00  0.00     0.122 C 
HETATM   16  C   UNL     1      17.004  -2.475 -17.659  1.00  0.00     0.122 C 
HETATM   17  C   UNL     1      17.549  -3.870 -17.512  1.00  0.00     0.238 C 
HETATM   18  O   UNL     1      18.633  -4.227 -17.956  1.00  0.00    -0.272 OA
HETATM   19  N   UNL     1      16.654  -4.638 -16.812  1.00  0.00    -0.249 N 
HETATM   20  C   UNL     1      15.486  -3.959 -16.541  1.00  0.00     0.238 C 
HETATM   21  O   UNL     1      14.443  -4.424 -16.105  1.00  0.00    -0.272 OA
HETATM   22 BR   UNL     1      13.136  -1.438 -16.169  1.00  0.00    -0.074 Br
HETATM   23 BR   UNL     1      18.148  -2.147 -20.296  1.00  0.00    -0.074 Br
ENDROOT
BRANCH  19  24
HETATM   24  C   UNL     1      16.871  -6.018 -16.551  1.00  0.00     0.079 A 
HETATM   25  C   UNL     1      17.452  -6.424 -15.340  1.00  0.00     0.033 A 
HETATM   26  C   UNL     1      17.614  -7.782 -15.038  1.00  0.00     0.002 A 
HETATM   27  C   UNL     1      17.236  -8.761 -15.949  1.00  0.00     0.003 A 
HETATM   28  C   UNL     1      16.701  -8.381 -17.179  1.00  0.00     0.040 A 
HETATM   29  C   UNL     1      16.499  -7.022 -17.474  1.00  0.00     0.106 A 
BRANCH  29  30
HETATM   30  O   UNL     1      16.166  -6.641 -18.799  1.00  0.00    -0.271 OA
BRANCH  30  31
HETATM   31  C   UNL     1      14.820  -6.635 -19.179  1.00  0.00     0.322 C 
HETATM   32  O   UNL     1      13.866  -6.630 -18.408  1.00  0.00    -0.257 OA
BRANCH  31  33
HETATM   33  C   UNL     1      14.704  -6.742 -20.617  1.00  0.00     0.150 A 
HETATM   34  C   UNL     1      15.673  -6.664 -21.603  1.00  0.00     0.045 A 
HETATM   35  C   UNL     1      15.015  -6.838 -22.843  1.00  0.00     0.027 A 
HETATM   36  C   UNL     1      13.679  -6.967 -22.549  1.00  0.00     0.143 A 
HETATM   37  O   UNL     1      13.476  -6.906 -21.206  1.00  0.00    -0.317 OA
ENDBRANCH  31  33
ENDBRANCH  30  31
ENDBRANCH  29  30
ENDBRANCH  19  24
TORSDOF 4
ENDMDL
