MODEL 1
REMARK VINA RESULT:      -8.3      0.000      0.000
REMARK  5 active torsions:
REMARK  status: ('A' for Active; 'I' for Inactive)
REMARK       I    between atoms: N_8  and  C_9 
REMARK    1  A    between atoms: C_9  and  C_11 
REMARK    2  A    between atoms: C_11  and  N_13 
REMARK    3  A    between atoms: C_22  and  C_23 
REMARK    4  A    between atoms: C_28  and  S_30 
REMARK    5  A    between atoms: S_30  and  N_33 
ROOT
HETATM    1  C   UNL     1      13.904  -4.846 -24.392  1.00  0.00     0.048 C 
HETATM    2  C   UNL     1      13.147  -4.073 -23.357  1.00  0.00    -0.064 C 
HETATM    3  C   UNL     1      11.823  -3.703 -23.628  1.00  0.00     0.004 C 
HETATM    4  C   UNL     1      11.000  -3.206 -22.625  1.00  0.00     0.010 C 
HETATM    5  C   UNL     1      11.529  -2.993 -21.359  1.00  0.00     0.169 A 
HETATM    6  C   UNL     1      12.885  -3.172 -21.105  1.00  0.00     0.341 A 
HETATM    7  C   UNL     1      13.688  -3.787 -22.073  1.00  0.00     0.016 C 
HETATM    8  N   UNL     1      13.347  -2.588 -19.924  1.00  0.00     0.014 N 
HETATM    9  C   UNL     1      14.405  -2.940 -19.129  1.00  0.00     0.342 C 
HETATM   10  O   UNL     1      15.080  -3.958 -19.268  1.00  0.00    -0.263 OA
HETATM   11  HN  UNL     1      12.785  -1.833 -19.530  1.00  0.00     0.292 HD
ENDROOT
BRANCH   9  12
HETATM   12  C   UNL     1      14.778  -1.839 -18.109  1.00  0.00     0.207 C 
HETATM   13  C   UNL     1      15.433  -2.481 -16.887  1.00  0.00     0.044 C 
BRANCH  12  14
HETATM   14  N   UNL     1      15.602  -0.712 -18.626  1.00  0.00    -0.243 N 
HETATM   15  C   UNL     1      15.377   0.534 -18.048  1.00  0.00     0.269 C 
HETATM   16  O   UNL     1      14.592   0.736 -17.124  1.00  0.00    -0.266 OA
HETATM   17  C   UNL     1      16.093   1.672 -18.671  1.00  0.00     0.020 C 
HETATM   18  C   UNL     1      15.526   3.034 -18.352  1.00  0.00     0.045 C 
HETATM   19  C   UNL     1      17.145   1.470 -19.483  1.00  0.00    -0.017 C 
HETATM   20  C   UNL     1      16.493   4.165 -18.680  1.00  0.00     0.005 C 
HETATM   21  C   UNL     1      17.061   3.972 -20.078  1.00  0.00     0.005 C 
HETATM   22  C   UNL     1      17.807   2.633 -20.191  1.00  0.00     0.042 C 
HETATM   23  C   UNL     1      17.531   0.024 -19.689  1.00  0.00     0.065 C 
HETATM   24  N   UNL     1      16.768  -0.980 -19.344  1.00  0.00    -0.294 N 
HETATM   25  HN  UNL     1      17.018  -1.937 -19.595  1.00  0.00     0.187 HD
BRANCH  23  26
HETATM   26  C   UNL     1      18.867  -0.300 -20.331  1.00  0.00    -0.006 A 
HETATM   27  C   UNL     1      18.916  -0.811 -21.634  1.00  0.00     0.014 A 
HETATM   28  C   UNL     1      20.137  -1.175 -22.231  1.00  0.00     0.009 A 
HETATM   29  C   UNL     1      21.356  -1.027 -21.547  1.00  0.00    -0.039 A 
HETATM   30  C   UNL     1      22.634  -1.452 -22.225  1.00  0.00     0.050 C 
HETATM   31  C   UNL     1      21.308  -0.530 -20.235  1.00  0.00     0.081 A 
HETATM   32  C   UNL     1      20.073  -0.214 -19.628  1.00  0.00     0.039 A 
BRANCH  31  33
HETATM   33  S   UNL     1      22.786  -0.213 -19.294  1.00  0.00     0.239 S 
HETATM   34  O   UNL     1      23.382  -1.469 -18.903  1.00  0.00    -0.206 OA
HETATM   35  O   UNL     1      23.549   0.816 -19.958  1.00  0.00    -0.206 OA
BRANCH  33  36
HETATM   36  N   UNL     1      22.206   0.508 -17.893  1.00  0.00    -0.225 NA
HETATM   37  HN1 UNL     1      22.971   0.642 -17.231  1.00  0.00     0.136 HD
HETATM   38  HN2 UNL     1      21.718   1.371 -18.127  1.00  0.00     0.136 HD
ENDBRANCH  33  36
ENDBRANCH  31  33
ENDBRANCH  23  26
ENDBRANCH  12  14
ENDBRANCH   9  12
TORSDOF 5
ENDMDL
MODEL 2
REMARK VINA RESULT:      -8.2      3.160      8.095
REMARK  5 active torsions:
REMARK  status: ('A' for Active; 'I' for Inactive)
REMARK       I    between atoms: N_8  and  C_9 
REMARK    1  A    between atoms: C_9  and  C_11 
REMARK    2  A    between atoms: C_11  and  N_13 
REMARK    3  A    between atoms: C_22  and  C_23 
REMARK    4  A    between atoms: C_28  and  S_30 
REMARK    5  A    between atoms: S_30  and  N_33 
ROOT
HETATM    1  C   UNL     1      21.055  -1.444 -22.647  1.00  0.00     0.048 C 
HETATM    2  C   UNL     1      20.842  -1.208 -21.184  1.00  0.00    -0.064 C 
HETATM    3  C   UNL     1      21.767  -1.737 -20.274  1.00  0.00     0.004 C 
HETATM    4  C   UNL     1      21.760  -1.351 -18.940  1.00  0.00     0.010 C 
HETATM    5  C   UNL     1      20.764  -0.495 -18.489  1.00  0.00     0.169 A 
HETATM    6  C   UNL     1      19.722  -0.100 -19.321  1.00  0.00     0.341 A 
HETATM    7  C   UNL     1      19.793  -0.385 -20.690  1.00  0.00     0.016 C 
HETATM    8  N   UNL     1      18.617   0.448 -18.666  1.00  0.00     0.014 N 
HETATM    9  C   UNL     1      17.688   1.346 -19.118  1.00  0.00     0.342 C 
HETATM   10  O   UNL     1      17.752   1.943 -20.190  1.00  0.00    -0.263 OA
HETATM   11  HN  UNL     1      18.507   0.222 -17.677  1.00  0.00     0.292 HD
ENDROOT
BRANCH   9  12
HETATM   12  C   UNL     1      16.444   1.431 -18.203  1.00  0.00     0.207 C 
HETATM   13  C   UNL     1      15.477   2.475 -18.756  1.00  0.00     0.044 C 
BRANCH  12  14
HETATM   14  N   UNL     1      15.742   0.148 -17.923  1.00  0.00    -0.243 N 
HETATM   15  C   UNL     1      15.144   0.031 -16.672  1.00  0.00     0.269 C 
HETATM   16  O   UNL     1      15.123   0.924 -15.828  1.00  0.00    -0.266 OA
HETATM   17  C   UNL     1      14.578  -1.301 -16.350  1.00  0.00     0.020 C 
HETATM   18  C   UNL     1      14.344  -1.557 -14.882  1.00  0.00     0.045 C 
HETATM   19  C   UNL     1      14.337  -2.205 -17.316  1.00  0.00    -0.017 C 
HETATM   20  C   UNL     1      13.425  -2.746 -14.631  1.00  0.00     0.005 C 
HETATM   21  C   UNL     1      13.877  -3.935 -15.467  1.00  0.00     0.005 C 
HETATM   22  C   UNL     1      13.853  -3.596 -16.966  1.00  0.00     0.042 C 
HETATM   23  C   UNL     1      14.670  -1.754 -18.718  1.00  0.00     0.065 C 
HETATM   24  N   UNL     1      15.385  -0.689 -18.981  1.00  0.00    -0.294 N 
HETATM   25  HN  UNL     1      15.675  -0.477 -19.936  1.00  0.00     0.187 HD
BRANCH  23  26
HETATM   26  C   UNL     1      14.163  -2.564 -19.896  1.00  0.00    -0.006 A 
HETATM   27  C   UNL     1      15.070  -3.179 -20.769  1.00  0.00     0.014 A 
HETATM   28  C   UNL     1      14.627  -3.887 -21.901  1.00  0.00     0.009 A 
HETATM   29  C   UNL     1      13.258  -4.015 -22.193  1.00  0.00    -0.039 A 
HETATM   30  C   UNL     1      12.838  -4.766 -23.431  1.00  0.00     0.050 C 
HETATM   31  C   UNL     1      12.349  -3.385 -21.328  1.00  0.00     0.081 A 
HETATM   32  C   UNL     1      12.805  -2.636 -20.222  1.00  0.00     0.039 A 
BRANCH  31  33
HETATM   33  S   UNL     1      10.587  -3.545 -21.537  1.00  0.00     0.239 S 
HETATM   34  O   UNL     1      10.204  -2.984 -22.810  1.00  0.00    -0.206 OA
HETATM   35  O   UNL     1      10.190  -4.875 -21.142  1.00  0.00    -0.206 OA
BRANCH  33  36
HETATM   36  N   UNL     1       9.964  -2.532 -20.352  1.00  0.00    -0.225 NA
HETATM   37  HN1 UNL     1      10.279  -1.575 -20.514  1.00  0.00     0.136 HD
HETATM   38  HN2 UNL     1       8.950  -2.624 -20.319  1.00  0.00     0.136 HD
ENDBRANCH  33  36
ENDBRANCH  31  33
ENDBRANCH  23  26
ENDBRANCH  12  14
ENDBRANCH   9  12
TORSDOF 5
ENDMDL
MODEL 3
REMARK VINA RESULT:      -8.0      5.777      8.560
REMARK  5 active torsions:
REMARK  status: ('A' for Active; 'I' for Inactive)
REMARK       I    between atoms: N_8  and  C_9 
REMARK    1  A    between atoms: C_9  and  C_11 
REMARK    2  A    between atoms: C_11  and  N_13 
REMARK    3  A    between atoms: C_22  and  C_23 
REMARK    4  A    between atoms: C_28  and  S_30 
REMARK    5  A    between atoms: S_30  and  N_33 
ROOT
HETATM    1  C   UNL     1       6.958  -2.691 -21.957  1.00  0.00     0.048 C 
HETATM    2  C   UNL     1       7.835  -3.831 -21.541  1.00  0.00    -0.064 C 
HETATM    3  C   UNL     1       7.248  -4.936 -20.909  1.00  0.00     0.004 C 
HETATM    4  C   UNL     1       7.959  -6.114 -20.723  1.00  0.00     0.010 C 
HETATM    5  C   UNL     1       9.297  -6.162 -21.091  1.00  0.00     0.169 A 
HETATM    6  C   UNL     1       9.961  -5.027 -21.546  1.00  0.00     0.341 A 
HETATM    7  C   UNL     1       9.222  -3.878 -21.851  1.00  0.00     0.016 C 
HETATM    8  N   UNL     1      11.354  -5.113 -21.534  1.00  0.00     0.014 N 
HETATM    9  C   UNL     1      12.277  -4.468 -22.313  1.00  0.00     0.342 C 
HETATM   10  O   UNL     1      12.008  -3.765 -23.285  1.00  0.00    -0.263 OA
HETATM   11  HN  UNL     1      11.770  -5.810 -20.916  1.00  0.00     0.292 HD
ENDROOT
BRANCH   9  12
HETATM   12  C   UNL     1      13.715  -4.583 -21.754  1.00  0.00     0.207 C 
HETATM   13  C   UNL     1      14.151  -3.231 -21.193  1.00  0.00     0.044 C 
BRANCH  12  14
HETATM   14  N   UNL     1      13.956  -5.674 -20.770  1.00  0.00    -0.243 N 
HETATM   15  C   UNL     1      14.576  -6.820 -21.257  1.00  0.00     0.269 C 
HETATM   16  O   UNL     1      14.969  -6.956 -22.414  1.00  0.00    -0.266 OA
HETATM   17  C   UNL     1      14.675  -7.953 -20.306  1.00  0.00     0.020 C 
HETATM   18  C   UNL     1      14.926  -9.299 -20.940  1.00  0.00     0.045 C 
HETATM   19  C   UNL     1      14.514  -7.766 -18.984  1.00  0.00    -0.017 C 
HETATM   20  C   UNL     1      15.399 -10.344 -19.937  1.00  0.00     0.005 C 
HETATM   21  C   UNL     1      14.501 -10.324 -18.708  1.00  0.00     0.005 C 
HETATM   22  C   UNL     1      14.519  -8.944 -18.033  1.00  0.00     0.042 C 
HETATM   23  C   UNL     1      14.243  -6.341 -18.563  1.00  0.00     0.065 C 
HETATM   24  N   UNL     1      13.918  -5.392 -19.404  1.00  0.00    -0.294 N 
HETATM   25  HN  UNL     1      13.642  -4.469 -19.068  1.00  0.00     0.187 HD
BRANCH  23  26
HETATM   26  C   UNL     1      14.346  -5.970 -17.096  1.00  0.00    -0.006 A 
HETATM   27  C   UNL     1      13.185  -5.809 -16.328  1.00  0.00     0.014 A 
HETATM   28  C   UNL     1      13.251  -5.409 -14.981  1.00  0.00     0.009 A 
HETATM   29  C   UNL     1      14.484  -5.170 -14.350  1.00  0.00    -0.039 A 
HETATM   30  C   UNL     1      14.496  -4.723 -12.910  1.00  0.00     0.050 C 
HETATM   31  C   UNL     1      15.647  -5.316 -15.122  1.00  0.00     0.081 A 
HETATM   32  C   UNL     1      15.568  -5.670 -16.486  1.00  0.00     0.039 A 
BRANCH  31  33
HETATM   33  S   UNL     1      17.272  -5.128 -14.418  1.00  0.00     0.239 S 
HETATM   34  O   UNL     1      17.602  -3.725 -14.346  1.00  0.00    -0.206 OA
HETATM   35  O   UNL     1      17.387  -5.996 -13.271  1.00  0.00    -0.206 OA
BRANCH  33  36
HETATM   36  N   UNL     1      18.277  -5.805 -15.581  1.00  0.00    -0.225 NA
HETATM   37  HN1 UNL     1      17.741  -6.010 -16.424  1.00  0.00     0.136 HD
HETATM   38  HN2 UNL     1      19.073  -5.190 -15.746  1.00  0.00     0.136 HD
ENDBRANCH  33  36
ENDBRANCH  31  33
ENDBRANCH  23  26
ENDBRANCH  12  14
ENDBRANCH   9  12
TORSDOF 5
ENDMDL
MODEL 4
REMARK VINA RESULT:      -8.0      3.049      8.211
REMARK  5 active torsions:
REMARK  status: ('A' for Active; 'I' for Inactive)
REMARK       I    between atoms: N_8  and  C_9 
REMARK    1  A    between atoms: C_9  and  C_11 
REMARK    2  A    between atoms: C_11  and  N_13 
REMARK    3  A    between atoms: C_22  and  C_23 
REMARK    4  A    between atoms: C_28  and  S_30 
REMARK    5  A    between atoms: S_30  and  N_33 
ROOT
HETATM    1  C   UNL     1      23.997   0.976 -21.336  1.00  0.00     0.048 C 
HETATM    2  C   UNL     1      22.691   0.252 -21.453  1.00  0.00    -0.064 C 
HETATM    3  C   UNL     1      22.574  -0.780 -22.394  1.00  0.00     0.004 C 
HETATM    4  C   UNL     1      21.484  -1.640 -22.381  1.00  0.00     0.010 C 
HETATM    5  C   UNL     1      20.457  -1.417 -21.474  1.00  0.00     0.169 A 
HETATM    6  C   UNL     1      20.452  -0.294 -20.653  1.00  0.00     0.341 A 
HETATM    7  C   UNL     1      21.600   0.504 -20.576  1.00  0.00     0.016 C 
HETATM    8  N   UNL     1      19.220   0.003 -20.066  1.00  0.00     0.014 N 
HETATM    9  C   UNL     1      18.944   0.660 -18.897  1.00  0.00     0.342 C 
HETATM   10  O   UNL     1      19.785   1.003 -18.068  1.00  0.00    -0.263 OA
HETATM   11  HN  UNL     1      18.389  -0.383 -20.514  1.00  0.00     0.292 HD
ENDROOT
BRANCH   9  12
HETATM   12  C   UNL     1      17.459   1.076 -18.782  1.00  0.00     0.207 C 
HETATM   13  C   UNL     1      17.019   1.752 -20.079  1.00  0.00     0.044 C 
BRANCH  12  14
HETATM   14  N   UNL     1      16.503   0.006 -18.386  1.00  0.00    -0.243 N 
HETATM   15  C   UNL     1      15.851   0.179 -17.168  1.00  0.00     0.269 C 
HETATM   16  O   UNL     1      15.983   1.165 -16.447  1.00  0.00    -0.266 OA
HETATM   17  C   UNL     1      15.017  -0.960 -16.716  1.00  0.00     0.020 C 
HETATM   18  C   UNL     1      14.685  -0.964 -15.244  1.00  0.00     0.045 C 
HETATM   19  C   UNL     1      14.631  -1.922 -17.574  1.00  0.00    -0.017 C 
HETATM   20  C   UNL     1      13.537  -1.905 -14.902  1.00  0.00     0.005 C 
HETATM   21  C   UNL     1      13.767  -3.261 -15.553  1.00  0.00     0.005 C 
HETATM   22  C   UNL     1      13.863  -3.130 -17.081  1.00  0.00     0.042 C 
HETATM   23  C   UNL     1      15.096  -1.739 -18.999  1.00  0.00     0.065 C 
HETATM   24  N   UNL     1      16.020  -0.881 -19.349  1.00  0.00    -0.294 N 
HETATM   25  HN  UNL     1      16.379  -0.861 -20.304  1.00  0.00     0.187 HD
BRANCH  23  26
HETATM   26  C   UNL     1      14.476  -2.586 -20.094  1.00  0.00    -0.006 A 
HETATM   27  C   UNL     1      15.294  -3.286 -20.990  1.00  0.00     0.014 A 
HETATM   28  C   UNL     1      14.745  -4.031 -22.050  1.00  0.00     0.009 A 
HETATM   29  C   UNL     1      13.356  -4.113 -22.241  1.00  0.00    -0.039 A 
HETATM   30  C   UNL     1      12.821  -4.908 -23.406  1.00  0.00     0.050 C 
HETATM   31  C   UNL     1      12.535  -3.399 -21.354  1.00  0.00     0.081 A 
HETATM   32  C   UNL     1      13.097  -2.615 -20.324  1.00  0.00     0.039 A 
BRANCH  31  33
HETATM   33  S   UNL     1      10.758  -3.491 -21.435  1.00  0.00     0.239 S 
HETATM   34  O   UNL     1      10.311  -2.977 -22.708  1.00  0.00    -0.206 OA
HETATM   35  O   UNL     1      10.336  -4.781 -20.946  1.00  0.00    -0.206 OA
BRANCH  33  36
HETATM   36  N   UNL     1      10.260  -2.395 -20.265  1.00  0.00    -0.225 NA
HETATM   37  HN1 UNL     1      10.519  -1.448 -20.546  1.00  0.00     0.136 HD
HETATM   38  HN2 UNL     1       9.262  -2.507 -20.092  1.00  0.00     0.136 HD
ENDBRANCH  33  36
ENDBRANCH  31  33
ENDBRANCH  23  26
ENDBRANCH  12  14
ENDBRANCH   9  12
TORSDOF 5
ENDMDL
MODEL 5
REMARK VINA RESULT:      -7.9      3.883      8.864
REMARK  5 active torsions:
REMARK  status: ('A' for Active; 'I' for Inactive)
REMARK       I    between atoms: N_8  and  C_9 
REMARK    1  A    between atoms: C_9  and  C_11 
REMARK    2  A    between atoms: C_11  and  N_13 
REMARK    3  A    between atoms: C_22  and  C_23 
REMARK    4  A    between atoms: C_28  and  S_30 
REMARK    5  A    between atoms: S_30  and  N_33 
ROOT
HETATM    1  C   UNL     1      23.278  -4.117 -21.751  1.00  0.00     0.048 C 
HETATM    2  C   UNL     1      22.332  -2.969 -21.574  1.00  0.00    -0.064 C 
HETATM    3  C   UNL     1      22.503  -1.827 -22.369  1.00  0.00     0.004 C 
HETATM    4  C   UNL     1      21.525  -0.842 -22.425  1.00  0.00     0.010 C 
HETATM    5  C   UNL     1      20.404  -0.955 -21.613  1.00  0.00     0.169 A 
HETATM    6  C   UNL     1      20.292  -1.977 -20.677  1.00  0.00     0.341 A 
HETATM    7  C   UNL     1      21.210  -3.034 -20.703  1.00  0.00     0.016 C 
HETATM    8  N   UNL     1      19.319  -1.776 -19.695  1.00  0.00     0.014 N 
HETATM    9  C   UNL     1      18.610  -2.691 -18.966  1.00  0.00     0.342 C 
HETATM   10  O   UNL     1      18.626  -3.906 -19.156  1.00  0.00    -0.263 OA
HETATM   11  HN  UNL     1      19.017  -0.815 -19.534  1.00  0.00     0.292 HD
ENDROOT
BRANCH   9  12
HETATM   12  C   UNL     1      17.886  -2.058 -17.754  1.00  0.00     0.207 C 
HETATM   13  C   UNL     1      17.601  -0.586 -18.045  1.00  0.00     0.044 C 
BRANCH  12  14
HETATM   14  N   UNL     1      16.660  -2.756 -17.279  1.00  0.00    -0.243 N 
HETATM   15  C   UNL     1      16.535  -2.921 -15.903  1.00  0.00     0.269 C 
HETATM   16  O   UNL     1      17.338  -2.488 -15.079  1.00  0.00    -0.266 OA
HETATM   17  C   UNL     1      15.388  -3.745 -15.453  1.00  0.00     0.020 C 
HETATM   18  C   UNL     1      15.502  -4.284 -14.049  1.00  0.00     0.045 C 
HETATM   19  C   UNL     1      14.354  -4.002 -16.274  1.00  0.00    -0.017 C 
HETATM   20  C   UNL     1      14.170  -4.782 -13.500  1.00  0.00     0.005 C 
HETATM   21  C   UNL     1      13.492  -5.681 -14.524  1.00  0.00     0.005 C 
HETATM   22  C   UNL     1      13.236  -4.925 -15.838  1.00  0.00     0.042 C 
HETATM   23  C   UNL     1      14.454  -3.386 -17.649  1.00  0.00     0.065 C 
HETATM   24  N   UNL     1      15.557  -2.870 -18.128  1.00  0.00    -0.294 N 
HETATM   25  HN  UNL     1      15.611  -2.558 -19.098  1.00  0.00     0.187 HD
BRANCH  23  26
HETATM   26  C   UNL     1      13.226  -3.358 -18.538  1.00  0.00    -0.006 A 
HETATM   27  C   UNL     1      12.420  -2.213 -18.590  1.00  0.00     0.014 A 
HETATM   28  C   UNL     1      11.244  -2.182 -19.362  1.00  0.00     0.009 A 
HETATM   29  C   UNL     1      10.839  -3.293 -20.120  1.00  0.00    -0.039 A 
HETATM   30  C   UNL     1       9.559  -3.214 -20.913  1.00  0.00     0.050 C 
HETATM   31  C   UNL     1      11.636  -4.447 -20.057  1.00  0.00     0.081 A 
HETATM   32  C   UNL     1      12.788  -4.485 -19.242  1.00  0.00     0.039 A 
BRANCH  31  33
HETATM   33  S   UNL     1      11.282  -5.891 -21.038  1.00  0.00     0.239 S 
HETATM   34  O   UNL     1      10.095  -6.535 -20.528  1.00  0.00    -0.206 OA
HETATM   35  O   UNL     1      11.421  -5.551 -22.434  1.00  0.00    -0.206 OA
BRANCH  33  36
HETATM   36  N   UNL     1      12.571  -6.912 -20.705  1.00  0.00    -0.225 NA
HETATM   37  HN1 UNL     1      12.227  -7.856 -20.524  1.00  0.00     0.136 HD
HETATM   38  HN2 UNL     1      13.250  -6.867 -21.464  1.00  0.00     0.136 HD
ENDBRANCH  33  36
ENDBRANCH  31  33
ENDBRANCH  23  26
ENDBRANCH  12  14
ENDBRANCH   9  12
TORSDOF 5
ENDMDL
MODEL 6
REMARK VINA RESULT:      -7.8      3.036      7.856
REMARK  5 active torsions:
REMARK  status: ('A' for Active; 'I' for Inactive)
REMARK       I    between atoms: N_8  and  C_9 
REMARK    1  A    between atoms: C_9  and  C_11 
REMARK    2  A    between atoms: C_11  and  N_13 
REMARK    3  A    between atoms: C_22  and  C_23 
REMARK    4  A    between atoms: C_28  and  S_30 
REMARK    5  A    between atoms: S_30  and  N_33 
ROOT
HETATM    1  C   UNL     1      20.616  -1.408 -22.423  1.00  0.00     0.048 C 
HETATM    2  C   UNL     1      20.387  -1.198 -20.958  1.00  0.00    -0.064 C 
HETATM    3  C   UNL     1      21.234  -1.842 -20.045  1.00  0.00     0.004 C 
HETATM    4  C   UNL     1      21.228  -1.499 -18.699  1.00  0.00     0.010 C 
HETATM    5  C   UNL     1      20.307  -0.565 -18.243  1.00  0.00     0.169 A 
HETATM    6  C   UNL     1      19.329  -0.047 -19.085  1.00  0.00     0.341 A 
HETATM    7  C   UNL     1      19.408  -0.294 -20.461  1.00  0.00     0.016 C 
HETATM    8  N   UNL     1      18.264   0.583 -18.438  1.00  0.00     0.014 N 
HETATM    9  C   UNL     1      17.437   1.580 -18.880  1.00  0.00     0.342 C 
HETATM   10  O   UNL     1      17.586   2.202 -19.931  1.00  0.00    -0.263 OA
HETATM   11  HN  UNL     1      18.107   0.338 -17.460  1.00  0.00     0.292 HD
ENDROOT
BRANCH   9  12
HETATM   12  C   UNL     1      16.183   1.755 -17.992  1.00  0.00     0.207 C 
HETATM   13  C   UNL     1      15.242   2.770 -18.637  1.00  0.00     0.044 C 
BRANCH  12  14
HETATM   14  N   UNL     1      15.455   0.509 -17.626  1.00  0.00    -0.243 N 
HETATM   15  C   UNL     1      15.194   0.320 -16.272  1.00  0.00     0.269 C 
HETATM   16  O   UNL     1      15.482   1.130 -15.393  1.00  0.00    -0.266 OA
HETATM   17  C   UNL     1      14.604  -0.989 -15.905  1.00  0.00     0.020 C 
HETATM   18  C   UNL     1      14.735  -1.362 -14.449  1.00  0.00     0.045 C 
HETATM   19  C   UNL     1      14.031  -1.776 -16.833  1.00  0.00    -0.017 C 
HETATM   20  C   UNL     1      13.800  -2.497 -14.046  1.00  0.00     0.005 C 
HETATM   21  C   UNL     1      13.900  -3.632 -15.054  1.00  0.00     0.005 C 
HETATM   22  C   UNL     1      13.520  -3.153 -16.464  1.00  0.00     0.042 C 
HETATM   23  C   UNL     1      14.031  -1.222 -18.237  1.00  0.00     0.065 C 
HETATM   24  N   UNL     1      14.755  -0.196 -18.606  1.00  0.00    -0.294 N 
HETATM   25  HN  UNL     1      14.805   0.083 -19.586  1.00  0.00     0.187 HD
BRANCH  23  26
HETATM   26  C   UNL     1      13.158  -1.877 -19.291  1.00  0.00    -0.006 A 
HETATM   27  C   UNL     1      11.810  -1.516 -19.411  1.00  0.00     0.014 A 
HETATM   28  C   UNL     1      10.964  -2.148 -20.341  1.00  0.00     0.009 A 
HETATM   29  C   UNL     1      11.443  -3.158 -21.193  1.00  0.00    -0.039 A 
HETATM   30  C   UNL     1      10.489  -3.818 -22.156  1.00  0.00     0.050 C 
HETATM   31  C   UNL     1      12.789  -3.533 -21.063  1.00  0.00     0.081 A 
HETATM   32  C   UNL     1      13.617  -2.926 -20.094  1.00  0.00     0.039 A 
BRANCH  31  33
HETATM   33  S   UNL     1      13.540  -4.735 -22.142  1.00  0.00     0.239 S 
HETATM   34  O   UNL     1      12.867  -6.003 -21.984  1.00  0.00    -0.206 OA
HETATM   35  O   UNL     1      13.739  -4.136 -23.439  1.00  0.00    -0.206 OA
BRANCH  33  36
HETATM   36  N   UNL     1      15.081  -4.919 -21.503  1.00  0.00    -0.225 NA
HETATM   37  HN1 UNL     1      15.600  -4.045 -21.594  1.00  0.00     0.136 HD
HETATM   38  HN2 UNL     1      15.018  -5.255 -20.543  1.00  0.00     0.136 HD
ENDBRANCH  33  36
ENDBRANCH  31  33
ENDBRANCH  23  26
ENDBRANCH  12  14
ENDBRANCH   9  12
TORSDOF 5
ENDMDL
MODEL 7
REMARK VINA RESULT:      -7.8      5.317      9.440
REMARK  5 active torsions:
REMARK  status: ('A' for Active; 'I' for Inactive)
REMARK       I    between atoms: N_8  and  C_9 
REMARK    1  A    between atoms: C_9  and  C_11 
REMARK    2  A    between atoms: C_11  and  N_13 
REMARK    3  A    between atoms: C_22  and  C_23 
REMARK    4  A    between atoms: C_28  and  S_30 
REMARK    5  A    between atoms: S_30  and  N_33 
ROOT
HETATM    1  C   UNL     1      15.290   2.364 -18.139  1.00  0.00     0.048 C 
HETATM    2  C   UNL     1      15.965   1.722 -16.966  1.00  0.00    -0.064 C 
HETATM    3  C   UNL     1      17.154   2.284 -16.482  1.00  0.00     0.004 C 
HETATM    4  C   UNL     1      17.689   1.887 -15.264  1.00  0.00     0.010 C 
HETATM    5  C   UNL     1      17.079   0.856 -14.561  1.00  0.00     0.169 A 
HETATM    6  C   UNL     1      16.009   0.151 -15.101  1.00  0.00     0.341 A 
HETATM    7  C   UNL     1      15.393   0.625 -16.265  1.00  0.00     0.016 C 
HETATM    8  N   UNL     1      15.728  -1.066 -14.476  1.00  0.00     0.014 N 
HETATM    9  C   UNL     1      14.546  -1.750 -14.384  1.00  0.00     0.342 C 
HETATM   10  O   UNL     1      13.454  -1.319 -14.750  1.00  0.00    -0.263 OA
HETATM   11  HN  UNL     1      16.480  -1.492 -13.933  1.00  0.00     0.292 HD
ENDROOT
BRANCH   9  12
HETATM   12  C   UNL     1      14.736  -3.209 -13.907  1.00  0.00     0.207 C 
HETATM   13  C   UNL     1      13.654  -3.553 -12.885  1.00  0.00     0.044 C 
BRANCH  12  14
HETATM   14  N   UNL     1      14.815  -4.247 -14.971  1.00  0.00    -0.243 N 
HETATM   15  C   UNL     1      15.585  -5.371 -14.683  1.00  0.00     0.269 C 
HETATM   16  O   UNL     1      16.146  -5.567 -13.608  1.00  0.00    -0.266 OA
HETATM   17  C   UNL     1      15.777  -6.324 -15.802  1.00  0.00     0.020 C 
HETATM   18  C   UNL     1      16.937  -7.274 -15.638  1.00  0.00     0.045 C 
HETATM   19  C   UNL     1      14.979  -6.294 -16.884  1.00  0.00    -0.017 C 
HETATM   20  C   UNL     1      16.867  -8.460 -16.592  1.00  0.00     0.005 C 
HETATM   21  C   UNL     1      16.578  -7.971 -18.004  1.00  0.00     0.005 C 
HETATM   22  C   UNL     1      15.246  -7.207 -18.062  1.00  0.00     0.042 C 
HETATM   23  C   UNL     1      13.894  -5.245 -16.856  1.00  0.00     0.065 C 
HETATM   24  N   UNL     1      13.870  -4.257 -15.998  1.00  0.00    -0.294 N 
HETATM   25  HN  UNL     1      13.178  -3.512 -16.078  1.00  0.00     0.187 HD
BRANCH  23  26
HETATM   26  C   UNL     1      12.766  -5.319 -17.869  1.00  0.00    -0.006 A 
HETATM   27  C   UNL     1      11.907  -6.426 -17.885  1.00  0.00     0.014 A 
HETATM   28  C   UNL     1      10.891  -6.546 -18.850  1.00  0.00     0.009 A 
HETATM   29  C   UNL     1      10.690  -5.555 -19.826  1.00  0.00    -0.039 A 
HETATM   30  C   UNL     1       9.599  -5.744 -20.850  1.00  0.00     0.050 C 
HETATM   31  C   UNL     1      11.559  -4.453 -19.821  1.00  0.00     0.081 A 
HETATM   32  C   UNL     1      12.607  -4.365 -18.879  1.00  0.00     0.039 A 
BRANCH  31  33
HETATM   33  S   UNL     1      11.356  -3.088 -20.947  1.00  0.00     0.239 S 
HETATM   34  O   UNL     1      11.857  -3.464 -22.248  1.00  0.00    -0.206 OA
HETATM   35  O   UNL     1      10.035  -2.534 -20.773  1.00  0.00    -0.206 OA
BRANCH  33  36
HETATM   36  N   UNL     1      12.403  -1.925 -20.339  1.00  0.00    -0.225 NA
HETATM   37  HN1 UNL     1      12.896  -2.296 -19.526  1.00  0.00     0.136 HD
HETATM   38  HN2 UNL     1      13.025  -1.603 -21.078  1.00  0.00     0.136 HD
ENDBRANCH  33  36
ENDBRANCH  31  33
ENDBRANCH  23  26
ENDBRANCH  12  14
ENDBRANCH   9  12
TORSDOF 5
ENDMDL
MODEL 8
REMARK VINA RESULT:      -7.8      3.558      8.735
REMARK  5 active torsions:
REMARK  status: ('A' for Active; 'I' for Inactive)
REMARK       I    between atoms: N_8  and  C_9 
REMARK    1  A    between atoms: C_9  and  C_11 
REMARK    2  A    between atoms: C_11  and  N_13 
REMARK    3  A    between atoms: C_22  and  C_23 
REMARK    4  A    between atoms: C_28  and  S_30 
REMARK    5  A    between atoms: S_30  and  N_33 
ROOT
HETATM    1  C   UNL     1      23.168  -3.765 -21.839  1.00  0.00     0.048 C 
HETATM    2  C   UNL     1      22.345  -2.563 -21.492  1.00  0.00    -0.064 C 
HETATM    3  C   UNL     1      22.748  -1.309 -21.971  1.00  0.00     0.004 C 
HETATM    4  C   UNL     1      21.906  -0.208 -21.890  1.00  0.00     0.010 C 
HETATM    5  C   UNL     1      20.682  -0.338 -21.248  1.00  0.00     0.169 A 
HETATM    6  C   UNL     1      20.331  -1.517 -20.598  1.00  0.00     0.341 A 
HETATM    7  C   UNL     1      21.117  -2.661 -20.781  1.00  0.00     0.016 C 
HETATM    8  N   UNL     1      19.266  -1.403 -19.702  1.00  0.00     0.014 N 
HETATM    9  C   UNL     1      18.366  -2.348 -19.287  1.00  0.00     0.342 C 
HETATM   10  O   UNL     1      18.268  -3.479 -19.758  1.00  0.00    -0.263 OA
HETATM   11  HN  UNL     1      19.057  -0.469 -19.348  1.00  0.00     0.292 HD
ENDROOT
BRANCH   9  12
HETATM   12  C   UNL     1      17.566  -1.904 -18.040  1.00  0.00     0.207 C 
HETATM   13  C   UNL     1      17.227  -0.420 -18.156  1.00  0.00     0.044 C 
BRANCH  12  14
HETATM   14  N   UNL     1      16.354  -2.705 -17.715  1.00  0.00    -0.243 N 
HETATM   15  C   UNL     1      16.129  -2.967 -16.366  1.00  0.00     0.269 C 
HETATM   16  O   UNL     1      16.832  -2.541 -15.452  1.00  0.00    -0.266 OA
HETATM   17  C   UNL     1      15.006  -3.887 -16.066  1.00  0.00     0.020 C 
HETATM   18  C   UNL     1      15.041  -4.509 -14.693  1.00  0.00     0.045 C 
HETATM   19  C   UNL     1      14.062  -4.153 -16.986  1.00  0.00    -0.017 C 
HETATM   20  C   UNL     1      13.706  -5.123 -14.290  1.00  0.00     0.005 C 
HETATM   21  C   UNL     1      13.174  -5.992 -15.420  1.00  0.00     0.005 C 
HETATM   22  C   UNL     1      12.976  -5.169 -16.703  1.00  0.00     0.042 C 
HETATM   23  C   UNL     1      14.233  -3.444 -18.308  1.00  0.00     0.065 C 
HETATM   24  N   UNL     1      15.334  -2.831 -18.659  1.00  0.00    -0.294 N 
HETATM   25  HN  UNL     1      15.445  -2.454 -19.601  1.00  0.00     0.187 HD
BRANCH  23  26
HETATM   26  C   UNL     1      13.081  -3.433 -19.296  1.00  0.00    -0.006 A 
HETATM   27  C   UNL     1      11.920  -2.702 -19.014  1.00  0.00     0.014 A 
HETATM   28  C   UNL     1      10.815  -2.721 -19.886  1.00  0.00     0.009 A 
HETATM   29  C   UNL     1      10.840  -3.465 -21.078  1.00  0.00    -0.039 A 
HETATM   30  C   UNL     1       9.621  -3.468 -21.966  1.00  0.00     0.050 C 
HETATM   31  C   UNL     1      11.997  -4.211 -21.354  1.00  0.00     0.081 A 
HETATM   32  C   UNL     1      13.081  -4.223 -20.450  1.00  0.00     0.039 A 
BRANCH  31  33
HETATM   33  S   UNL     1      12.188  -5.123 -22.872  1.00  0.00     0.239 S 
HETATM   34  O   UNL     1      11.256  -6.225 -22.888  1.00  0.00    -0.206 OA
HETATM   35  O   UNL     1      12.279  -4.189 -23.968  1.00  0.00    -0.206 OA
BRANCH  33  36
HETATM   36  N   UNL     1      13.724  -5.786 -22.734  1.00  0.00    -0.225 NA
HETATM   37  HN1 UNL     1      13.814  -6.267 -21.838  1.00  0.00     0.136 HD
HETATM   38  HN2 UNL     1      13.913  -6.386 -23.536  1.00  0.00     0.136 HD
ENDBRANCH  33  36
ENDBRANCH  31  33
ENDBRANCH  23  26
ENDBRANCH  12  14
ENDBRANCH   9  12
TORSDOF 5
ENDMDL
MODEL 9
REMARK VINA RESULT:      -7.7      3.829      6.279
REMARK  5 active torsions:
REMARK  status: ('A' for Active; 'I' for Inactive)
REMARK       I    between atoms: N_8  and  C_9 
REMARK    1  A    between atoms: C_9  and  C_11 
REMARK    2  A    between atoms: C_11  and  N_13 
REMARK    3  A    between atoms: C_22  and  C_23 
REMARK    4  A    between atoms: C_28  and  S_30 
REMARK    5  A    between atoms: S_30  and  N_33 
ROOT
HETATM    1  C   UNL     1      14.089  -1.616 -14.311  1.00  0.00     0.048 C 
HETATM    2  C   UNL     1      13.852  -1.045 -15.675  1.00  0.00    -0.064 C 
HETATM    3  C   UNL     1      12.568  -1.136 -16.230  1.00  0.00     0.004 C 
HETATM    4  C   UNL     1      12.230  -0.419 -17.370  1.00  0.00     0.010 C 
HETATM    5  C   UNL     1      13.207   0.329 -18.014  1.00  0.00     0.169 A 
HETATM    6  C   UNL     1      14.534   0.292 -17.598  1.00  0.00     0.341 A 
HETATM    7  C   UNL     1      14.854  -0.327 -16.384  1.00  0.00     0.016 C 
HETATM    8  N   UNL     1      15.457   0.782 -18.524  1.00  0.00     0.014 N 
HETATM    9  C   UNL     1      16.688   1.343 -18.319  1.00  0.00     0.342 C 
HETATM   10  O   UNL     1      17.152   1.637 -17.219  1.00  0.00    -0.263 OA
HETATM   11  HN  UNL     1      15.163   0.809 -19.501  1.00  0.00     0.292 HD
ENDROOT
BRANCH   9  12
HETATM   12  C   UNL     1      17.526   1.437 -19.615  1.00  0.00     0.207 C 
HETATM   13  C   UNL     1      17.864   2.900 -19.896  1.00  0.00     0.044 C 
BRANCH  12  14
HETATM   14  N   UNL     1      18.746   0.586 -19.677  1.00  0.00    -0.243 N 
HETATM   15  C   UNL     1      19.236   0.298 -20.948  1.00  0.00     0.269 C 
HETATM   16  O   UNL     1      18.757   0.739 -21.990  1.00  0.00    -0.266 OA
HETATM   17  C   UNL     1      20.358  -0.669 -21.002  1.00  0.00     0.020 C 
HETATM   18  C   UNL     1      20.585  -1.307 -22.350  1.00  0.00     0.045 C 
HETATM   19  C   UNL     1      21.078  -0.960 -19.904  1.00  0.00    -0.017 C 
HETATM   20  C   UNL     1      21.949  -1.977 -22.462  1.00  0.00     0.005 C 
HETATM   21  C   UNL     1      22.197  -2.852 -21.242  1.00  0.00     0.005 C 
HETATM   22  C   UNL     1      22.157  -2.021 -19.949  1.00  0.00     0.042 C 
HETATM   23  C   UNL     1      20.664  -0.227 -18.650  1.00  0.00     0.065 C 
HETATM   24  N   UNL     1      19.540   0.433 -18.540  1.00  0.00    -0.294 N 
HETATM   25  HN  UNL     1      19.250   0.826 -17.644  1.00  0.00     0.187 HD
BRANCH  23  26
HETATM   26  C   UNL     1      21.584  -0.248 -17.444  1.00  0.00    -0.006 A 
HETATM   27  C   UNL     1      22.919   0.156 -17.569  1.00  0.00     0.014 A 
HETATM   28  C   UNL     1      23.808   0.092 -16.480  1.00  0.00     0.009 A 
HETATM   29  C   UNL     1      23.386  -0.369 -15.222  1.00  0.00    -0.039 A 
HETATM   30  C   UNL     1      24.385  -0.439 -14.094  1.00  0.00     0.050 C 
HETATM   31  C   UNL     1      22.053  -0.790 -15.097  1.00  0.00     0.081 A 
HETATM   32  C   UNL     1      21.182  -0.767 -16.208  1.00  0.00     0.039 A 
BRANCH  31  33
HETATM   33  S   UNL     1      21.372  -1.312 -13.536  1.00  0.00     0.239 S 
HETATM   34  O   UNL     1      21.979  -2.561 -13.144  1.00  0.00    -0.206 OA
HETATM   35  O   UNL     1      21.326  -0.177 -12.646  1.00  0.00    -0.206 OA
BRANCH  33  36
HETATM   36  N   UNL     1      19.769  -1.644 -13.905  1.00  0.00    -0.225 NA
HETATM   37  HN1 UNL     1      19.601  -1.479 -14.898  1.00  0.00     0.136 HD
HETATM   38  HN2 UNL     1      19.537  -2.591 -13.607  1.00  0.00     0.136 HD
ENDBRANCH  33  36
ENDBRANCH  31  33
ENDBRANCH  23  26
ENDBRANCH  12  14
ENDBRANCH   9  12
TORSDOF 5
ENDMDL
