MODEL 1
REMARK VINA RESULT:      -6.7      0.000      0.000
REMARK  4 active torsions:
REMARK  status: ('A' for Active; 'I' for Inactive)
REMARK    1  A    between atoms: C_2  and  N_3 
REMARK    2  A    between atoms: N_3  and  C_4 
REMARK       I    between atoms: N_3  and  C_11 
REMARK    3  A    between atoms: C_11  and  C_13 
REMARK    4  A    between atoms: C_13  and  N_14 
ROOT
HETATM    1  C   UNL     1      20.655  -1.114 -16.849  1.00  0.00     0.027 C 
HETATM    2  C   UNL     1      19.264  -1.412 -17.398  1.00  0.00     0.128 C 
ENDROOT
BRANCH   2   3
HETATM    3  N   UNL     1      19.259  -2.432 -18.455  1.00  0.00    -0.317 N 
HETATM    4  C   UNL     1      18.795  -3.742 -18.206  1.00  0.00     0.244 C 
HETATM    5  O   UNL     1      18.528  -4.554 -19.102  1.00  0.00    -0.271 OA
BRANCH   3   6
HETATM    6  C   UNL     1      19.658  -2.041 -19.793  1.00  0.00     0.037 A 
HETATM    7  C   UNL     1      18.805  -1.286 -20.615  1.00  0.00     0.030 A 
HETATM    8  C   UNL     1      19.189  -0.883 -21.902  1.00  0.00     0.003 A 
HETATM    9  C   UNL     1      20.436  -1.232 -22.400  1.00  0.00     0.007 A 
HETATM   10  C   UNL     1      21.305  -1.997 -21.623  1.00  0.00    -0.060 A 
HETATM   11  C   UNL     1      22.676  -2.338 -22.128  1.00  0.00     0.048 C 
HETATM   12  C   UNL     1      20.904  -2.407 -20.332  1.00  0.00     0.036 A 
ENDBRANCH   3   6
BRANCH   4  13
HETATM   13  C   UNL     1      18.468  -4.170 -16.760  1.00  0.00     0.255 C 
BRANCH  13  14
HETATM   14  N   UNL     1      17.072  -4.346 -16.347  1.00  0.00    -0.248 N 
HETATM   15  C   UNL     1      16.617  -3.730 -15.186  1.00  0.00     0.273 C 
HETATM   16  O   UNL     1      17.235  -2.880 -14.555  1.00  0.00    -0.266 OA
HETATM   17  C   UNL     1      15.270  -4.109 -14.723  1.00  0.00     0.046 A 
HETATM   18  C   UNL     1      14.635  -3.341 -13.736  1.00  0.00     0.018 A 
HETATM   19  C   UNL     1      14.642  -5.226 -15.265  1.00  0.00     0.003 A 
HETATM   20  C   UNL     1      13.370  -3.701 -13.281  1.00  0.00     0.001 A 
HETATM   21  C   UNL     1      12.751  -4.840 -13.793  1.00  0.00     0.001 A 
HETATM   22  C   UNL     1      13.381  -5.603 -14.782  1.00  0.00     0.014 A 
HETATM   23  C   UNL     1      15.363  -5.922 -16.353  1.00  0.00     0.033 C 
HETATM   24  C   UNL     1      14.838  -7.224 -16.926  1.00  0.00     0.070 C 
HETATM   25  N   UNL     1      16.478  -5.484 -16.859  1.00  0.00    -0.299 N 
HETATM   26  HN  UNL     1      16.915  -5.981 -17.635  1.00  0.00     0.187 HD
ENDBRANCH  13  14
ENDBRANCH   4  13
ENDBRANCH   2   3
TORSDOF 4
ENDMDL
MODEL 2
REMARK VINA RESULT:      -6.6      1.645      2.770
REMARK  4 active torsions:
REMARK  status: ('A' for Active; 'I' for Inactive)
REMARK    1  A    between atoms: C_2  and  N_3 
REMARK    2  A    between atoms: N_3  and  C_4 
REMARK       I    between atoms: N_3  and  C_11 
REMARK    3  A    between atoms: C_11  and  C_13 
REMARK    4  A    between atoms: C_13  and  N_14 
ROOT
HETATM    1  C   UNL     1      16.907  -4.553 -19.103  1.00  0.00     0.027 C 
HETATM    2  C   UNL     1      18.413  -4.587 -18.859  1.00  0.00     0.128 C 
ENDROOT
BRANCH   2   3
HETATM    3  N   UNL     1      18.986  -3.271 -18.555  1.00  0.00    -0.317 N 
HETATM    4  C   UNL     1      19.386  -2.931 -17.244  1.00  0.00     0.244 C 
HETATM    5  O   UNL     1      20.101  -1.955 -16.978  1.00  0.00    -0.271 OA
BRANCH   3   6
HETATM    6  C   UNL     1      19.220  -2.349 -19.650  1.00  0.00     0.037 A 
HETATM    7  C   UNL     1      18.359  -1.262 -19.881  1.00  0.00     0.030 A 
HETATM    8  C   UNL     1      18.588  -0.351 -20.922  1.00  0.00     0.003 A 
HETATM    9  C   UNL     1      19.680  -0.510 -21.762  1.00  0.00     0.007 A 
HETATM   10  C   UNL     1      20.547  -1.586 -21.578  1.00  0.00    -0.060 A 
HETATM   11  C   UNL     1      21.762  -1.741 -22.446  1.00  0.00     0.048 C 
HETATM   12  C   UNL     1      20.302  -2.504 -20.533  1.00  0.00     0.036 A 
ENDBRANCH   3   6
BRANCH   4  13
HETATM   13  C   UNL     1      19.042  -3.879 -16.075  1.00  0.00     0.255 C 
BRANCH  13  14
HETATM   14  N   UNL     1      17.813  -3.672 -15.303  1.00  0.00    -0.248 N 
HETATM   15  C   UNL     1      16.822  -4.647 -15.317  1.00  0.00     0.273 C 
HETATM   16  O   UNL     1      16.955  -5.777 -15.775  1.00  0.00    -0.266 OA
HETATM   17  C   UNL     1      15.538  -4.291 -14.688  1.00  0.00     0.046 A 
HETATM   18  C   UNL     1      14.597  -5.295 -14.415  1.00  0.00     0.018 A 
HETATM   19  C   UNL     1      15.267  -2.962 -14.375  1.00  0.00     0.003 A 
HETATM   20  C   UNL     1      13.374  -4.965 -13.837  1.00  0.00     0.001 A 
HETATM   21  C   UNL     1      13.082  -3.632 -13.555  1.00  0.00     0.001 A 
HETATM   22  C   UNL     1      14.022  -2.630 -13.821  1.00  0.00     0.014 A 
HETATM   23  C   UNL     1      16.354  -1.992 -14.632  1.00  0.00     0.033 C 
HETATM   24  C   UNL     1      16.126  -0.504 -14.453  1.00  0.00     0.070 C 
HETATM   25  N   UNL     1      17.537  -2.344 -15.039  1.00  0.00    -0.299 N 
HETATM   26  HN  UNL     1      18.263  -1.639 -15.164  1.00  0.00     0.187 HD
ENDBRANCH  13  14
ENDBRANCH   4  13
ENDBRANCH   2   3
TORSDOF 4
ENDMDL
MODEL 3
REMARK VINA RESULT:      -6.5      5.866      8.160
REMARK  4 active torsions:
REMARK  status: ('A' for Active; 'I' for Inactive)
REMARK    1  A    between atoms: C_2  and  N_3 
REMARK    2  A    between atoms: N_3  and  C_4 
REMARK       I    between atoms: N_3  and  C_11 
REMARK    3  A    between atoms: C_11  and  C_13 
REMARK    4  A    between atoms: C_13  and  N_14 
ROOT
HETATM    1  C   UNL     1      11.974  -4.972 -18.348  1.00  0.00     0.027 C 
HETATM    2  C   UNL     1      12.700  -3.631 -18.387  1.00  0.00     0.128 C 
ENDROOT
BRANCH   2   3
HETATM    3  N   UNL     1      11.953  -2.582 -19.092  1.00  0.00    -0.317 N 
HETATM    4  C   UNL     1      11.864  -1.271 -18.573  1.00  0.00     0.244 C 
HETATM    5  O   UNL     1      11.476  -0.299 -19.236  1.00  0.00    -0.271 OA
BRANCH   3   6
HETATM    6  C   UNL     1      11.378  -2.895 -20.386  1.00  0.00     0.037 A 
HETATM    7  C   UNL     1      12.189  -3.053 -21.523  1.00  0.00     0.030 A 
HETATM    8  C   UNL     1      11.647  -3.378 -22.774  1.00  0.00     0.003 A 
HETATM    9  C   UNL     1      10.278  -3.547 -22.920  1.00  0.00     0.007 A 
HETATM   10  C   UNL     1       9.437  -3.380 -21.820  1.00  0.00    -0.060 A 
HETATM   11  C   UNL     1       7.960  -3.611 -21.952  1.00  0.00     0.048 C 
HETATM   12  C   UNL     1       9.992  -3.042 -20.567  1.00  0.00     0.036 A 
ENDBRANCH   3   6
BRANCH   4  13
HETATM   13  C   UNL     1      12.393  -0.979 -17.153  1.00  0.00     0.255 C 
BRANCH  13  14
HETATM   14  N   UNL     1      13.713  -0.366 -16.977  1.00  0.00    -0.248 N 
HETATM   15  C   UNL     1      14.345  -0.444 -15.741  1.00  0.00     0.273 C 
HETATM   16  O   UNL     1      13.980  -1.153 -14.809  1.00  0.00    -0.266 OA
HETATM   17  C   UNL     1      15.569   0.360 -15.574  1.00  0.00     0.046 A 
HETATM   18  C   UNL     1      16.408   0.126 -14.475  1.00  0.00     0.018 A 
HETATM   19  C   UNL     1      15.881   1.345 -16.506  1.00  0.00     0.003 A 
HETATM   20  C   UNL     1      17.557   0.892 -14.301  1.00  0.00     0.001 A 
HETATM   21  C   UNL     1      17.855   1.905 -15.210  1.00  0.00     0.001 A 
HETATM   22  C   UNL     1      17.022   2.135 -16.311  1.00  0.00     0.014 A 
HETATM   23  C   UNL     1      14.973   1.460 -17.669  1.00  0.00     0.033 C 
HETATM   24  C   UNL     1      15.138   2.581 -18.676  1.00  0.00     0.070 C 
HETATM   25  N   UNL     1      13.987   0.640 -17.883  1.00  0.00    -0.299 N 
HETATM   26  HN  UNL     1      13.415   0.740 -18.721  1.00  0.00     0.187 HD
ENDBRANCH  13  14
ENDBRANCH   4  13
ENDBRANCH   2   3
TORSDOF 4
ENDMDL
MODEL 4
REMARK VINA RESULT:      -6.5      7.614     10.520
REMARK  4 active torsions:
REMARK  status: ('A' for Active; 'I' for Inactive)
REMARK    1  A    between atoms: C_2  and  N_3 
REMARK    2  A    between atoms: N_3  and  C_4 
REMARK       I    between atoms: N_3  and  C_11 
REMARK    3  A    between atoms: C_11  and  C_13 
REMARK    4  A    between atoms: C_13  and  N_14 
ROOT
HETATM    1  C   UNL     1       9.447  -4.234 -22.052  1.00  0.00     0.027 C 
HETATM    2  C   UNL     1      10.486  -3.342 -22.723  1.00  0.00     0.128 C 
ENDROOT
BRANCH   2   3
HETATM    3  N   UNL     1      11.814  -3.421 -22.103  1.00  0.00    -0.317 N 
HETATM    4  C   UNL     1      12.937  -3.870 -22.832  1.00  0.00     0.244 C 
HETATM    5  O   UNL     1      14.106  -3.717 -22.450  1.00  0.00    -0.271 OA
BRANCH   3   6
HETATM    6  C   UNL     1      11.971  -2.942 -20.743  1.00  0.00     0.037 A 
HETATM    7  C   UNL     1      12.488  -3.773 -19.735  1.00  0.00     0.030 A 
HETATM    8  C   UNL     1      12.666  -3.314 -18.423  1.00  0.00     0.003 A 
HETATM    9  C   UNL     1      12.325  -2.012 -18.085  1.00  0.00     0.007 A 
HETATM   10  C   UNL     1      11.791  -1.162 -19.053  1.00  0.00    -0.060 A 
HETATM   11  C   UNL     1      11.466   0.264 -18.715  1.00  0.00     0.048 C 
HETATM   12  C   UNL     1      11.606  -1.638 -20.369  1.00  0.00     0.036 A 
ENDBRANCH   3   6
BRANCH   4  13
HETATM   13  C   UNL     1      12.739  -4.469 -24.240  1.00  0.00     0.255 C 
BRANCH  13  14
HETATM   14  N   UNL     1      13.763  -5.349 -24.812  1.00  0.00    -0.248 N 
HETATM   15  C   UNL     1      14.013  -5.313 -26.179  1.00  0.00     0.273 C 
HETATM   16  O   UNL     1      13.579  -4.463 -26.950  1.00  0.00    -0.266 OA
HETATM   17  C   UNL     1      14.905  -6.357 -26.715  1.00  0.00     0.046 A 
HETATM   18  C   UNL     1      15.422  -6.228 -28.012  1.00  0.00     0.018 A 
HETATM   19  C   UNL     1      15.222  -7.462 -25.932  1.00  0.00     0.003 A 
HETATM   20  C   UNL     1      16.252  -7.218 -28.532  1.00  0.00     0.001 A 
HETATM   21  C   UNL     1      16.544  -8.345 -27.767  1.00  0.00     0.001 A 
HETATM   22  C   UNL     1      16.033  -8.472 -26.470  1.00  0.00     0.014 A 
HETATM   23  C   UNL     1      14.688  -7.466 -24.552  1.00  0.00     0.033 C 
HETATM   24  C   UNL     1      14.858  -8.676 -23.655  1.00  0.00     0.070 C 
HETATM   25  N   UNL     1      14.034  -6.464 -24.042  1.00  0.00    -0.299 N 
HETATM   26  HN  UNL     1      13.721  -6.501 -23.073  1.00  0.00     0.187 HD
ENDBRANCH  13  14
ENDBRANCH   4  13
ENDBRANCH   2   3
TORSDOF 4
ENDMDL
MODEL 5
REMARK VINA RESULT:      -6.5      7.903      8.947
REMARK  4 active torsions:
REMARK  status: ('A' for Active; 'I' for Inactive)
REMARK    1  A    between atoms: C_2  and  N_3 
REMARK    2  A    between atoms: N_3  and  C_4 
REMARK       I    between atoms: N_3  and  C_11 
REMARK    3  A    between atoms: C_11  and  C_13 
REMARK    4  A    between atoms: C_13  and  N_14 
ROOT
HETATM    1  C   UNL     1      12.638  -6.146 -28.086  1.00  0.00     0.027 C 
HETATM    2  C   UNL     1      13.660  -5.425 -27.214  1.00  0.00     0.128 C 
ENDROOT
BRANCH   2   3
HETATM    3  N   UNL     1      14.199  -6.259 -26.133  1.00  0.00    -0.317 N 
HETATM    4  C   UNL     1      13.993  -5.922 -24.776  1.00  0.00     0.244 C 
HETATM    5  O   UNL     1      14.195  -6.707 -23.840  1.00  0.00    -0.271 OA
BRANCH   3   6
HETATM    6  C   UNL     1      14.875  -7.493 -26.484  1.00  0.00     0.037 A 
HETATM    7  C   UNL     1      14.302  -8.743 -26.197  1.00  0.00     0.030 A 
HETATM    8  C   UNL     1      14.935  -9.942 -26.552  1.00  0.00     0.003 A 
HETATM    9  C   UNL     1      16.162  -9.919 -27.198  1.00  0.00     0.007 A 
HETATM   10  C   UNL     1      16.773  -8.699 -27.484  1.00  0.00    -0.060 A 
HETATM   11  C   UNL     1      18.076  -8.658 -28.228  1.00  0.00     0.048 C 
HETATM   12  C   UNL     1      16.132  -7.497 -27.112  1.00  0.00     0.036 A 
ENDBRANCH   3   6
BRANCH   4  13
HETATM   13  C   UNL     1      13.361  -4.561 -24.419  1.00  0.00     0.255 C 
BRANCH  13  14
HETATM   14  N   UNL     1      13.270  -4.142 -23.017  1.00  0.00    -0.248 N 
HETATM   15  C   UNL     1      12.146  -3.451 -22.579  1.00  0.00     0.273 C 
HETATM   16  O   UNL     1      11.111  -3.315 -23.223  1.00  0.00    -0.266 OA
HETATM   17  C   UNL     1      12.206  -2.888 -21.218  1.00  0.00     0.046 A 
HETATM   18  C   UNL     1      11.032  -2.426 -20.607  1.00  0.00     0.018 A 
HETATM   19  C   UNL     1      13.427  -2.814 -20.555  1.00  0.00     0.003 A 
HETATM   20  C   UNL     1      11.083  -1.876 -19.328  1.00  0.00     0.001 A 
HETATM   21  C   UNL     1      12.307  -1.766 -18.673  1.00  0.00     0.001 A 
HETATM   22  C   UNL     1      13.479  -2.232 -19.280  1.00  0.00     0.014 A 
HETATM   23  C   UNL     1      14.592  -3.397 -21.256  1.00  0.00     0.033 C 
HETATM   24  C   UNL     1      15.991  -3.257 -20.688  1.00  0.00     0.070 C 
HETATM   25  N   UNL     1      14.495  -4.032 -22.386  1.00  0.00    -0.299 N 
HETATM   26  HN  UNL     1      15.324  -4.450 -22.809  1.00  0.00     0.187 HD
ENDBRANCH  13  14
ENDBRANCH   4  13
ENDBRANCH   2   3
TORSDOF 4
ENDMDL
MODEL 6
REMARK VINA RESULT:      -6.5      5.983      8.816
REMARK  4 active torsions:
REMARK  status: ('A' for Active; 'I' for Inactive)
REMARK    1  A    between atoms: C_2  and  N_3 
REMARK    2  A    between atoms: N_3  and  C_4 
REMARK       I    between atoms: N_3  and  C_11 
REMARK    3  A    between atoms: C_11  and  C_13 
REMARK    4  A    between atoms: C_13  and  N_14 
ROOT
HETATM    1  C   UNL     1      15.334  -3.270 -20.653  1.00  0.00     0.027 C 
HETATM    2  C   UNL     1      15.120  -4.049 -19.359  1.00  0.00     0.128 C 
ENDROOT
BRANCH   2   3
HETATM    3  N   UNL     1      13.737  -4.002 -18.870  1.00  0.00    -0.317 N 
HETATM    4  C   UNL     1      12.826  -5.046 -19.147  1.00  0.00     0.244 C 
HETATM    5  O   UNL     1      11.746  -5.185 -18.557  1.00  0.00    -0.271 OA
BRANCH   3   6
HETATM    6  C   UNL     1      13.343  -2.898 -18.016  1.00  0.00     0.037 A 
HETATM    7  C   UNL     1      13.802  -2.804 -16.691  1.00  0.00     0.030 A 
HETATM    8  C   UNL     1      13.447  -1.730 -15.864  1.00  0.00     0.003 A 
HETATM    9  C   UNL     1      12.618  -0.726 -16.340  1.00  0.00     0.007 A 
HETATM   10  C   UNL     1      12.125  -0.792 -17.643  1.00  0.00    -0.060 A 
HETATM   11  C   UNL     1      11.268   0.314 -18.188  1.00  0.00     0.048 C 
HETATM   12  C   UNL     1      12.480  -1.883 -18.465  1.00  0.00     0.036 A 
ENDBRANCH   3   6
BRANCH   4  13
HETATM   13  C   UNL     1      13.227  -6.161 -20.136  1.00  0.00     0.255 C 
BRANCH  13  14
HETATM   14  N   UNL     1      13.071  -5.949 -21.579  1.00  0.00    -0.248 N 
HETATM   15  C   UNL     1      14.056  -6.403 -22.448  1.00  0.00     0.273 C 
HETATM   16  O   UNL     1      14.979  -7.147 -22.136  1.00  0.00    -0.266 OA
HETATM   17  C   UNL     1      13.937  -5.983 -23.856  1.00  0.00     0.046 A 
HETATM   18  C   UNL     1      14.717  -6.615 -24.836  1.00  0.00     0.018 A 
HETATM   19  C   UNL     1      13.056  -4.963 -24.201  1.00  0.00     0.003 A 
HETATM   20  C   UNL     1      14.624  -6.213 -26.166  1.00  0.00     0.001 A 
HETATM   21  C   UNL     1      13.771  -5.167 -26.512  1.00  0.00     0.001 A 
HETATM   22  C   UNL     1      12.988  -4.540 -25.536  1.00  0.00     0.014 A 
HETATM   23  C   UNL     1      12.224  -4.416 -23.107  1.00  0.00     0.033 C 
HETATM   24  C   UNL     1      11.327  -3.215 -23.337  1.00  0.00     0.070 C 
HETATM   25  N   UNL     1      12.227  -4.903 -21.902  1.00  0.00    -0.299 N 
HETATM   26  HN  UNL     1      11.605  -4.514 -21.193  1.00  0.00     0.187 HD
ENDBRANCH  13  14
ENDBRANCH   4  13
ENDBRANCH   2   3
TORSDOF 4
ENDMDL
MODEL 7
REMARK VINA RESULT:      -6.4     12.312     14.599
REMARK  4 active torsions:
REMARK  status: ('A' for Active; 'I' for Inactive)
REMARK    1  A    between atoms: C_2  and  N_3 
REMARK    2  A    between atoms: N_3  and  C_4 
REMARK       I    between atoms: N_3  and  C_11 
REMARK    3  A    between atoms: C_11  and  C_13 
REMARK    4  A    between atoms: C_13  and  N_14 
ROOT
HETATM    1  C   UNL     1      17.663  -8.541 -28.009  1.00  0.00     0.027 C 
HETATM    2  C   UNL     1      16.720  -7.546 -28.677  1.00  0.00     0.128 C 
ENDROOT
BRANCH   2   3
HETATM    3  N   UNL     1      15.326  -7.674 -28.234  1.00  0.00    -0.317 N 
HETATM    4  C   UNL     1      14.437  -8.572 -28.863  1.00  0.00     0.244 C 
HETATM    5  O   UNL     1      13.347  -8.907 -28.379  1.00  0.00    -0.271 OA
BRANCH   3   6
HETATM    6  C   UNL     1      14.899  -6.919 -27.071  1.00  0.00     0.037 A 
HETATM    7  C   UNL     1      14.244  -5.683 -27.207  1.00  0.00     0.030 A 
HETATM    8  C   UNL     1      13.806  -4.956 -26.092  1.00  0.00     0.003 A 
HETATM    9  C   UNL     1      14.019  -5.446 -24.811  1.00  0.00     0.007 A 
HETATM   10  C   UNL     1      14.682  -6.659 -24.633  1.00  0.00    -0.060 A 
HETATM   11  C   UNL     1      14.874  -7.226 -23.256  1.00  0.00     0.048 C 
HETATM   12  C   UNL     1      15.129  -7.379 -25.763  1.00  0.00     0.036 A 
ENDBRANCH   3   6
BRANCH   4  13
HETATM   13  C   UNL     1      14.873  -9.293 -30.157  1.00  0.00     0.255 C 
BRANCH  13  14
HETATM   14  N   UNL     1      15.432 -10.646 -30.087  1.00  0.00    -0.248 N 
HETATM   15  C   UNL     1      15.730 -11.327 -31.262  1.00  0.00     0.273 C 
HETATM   16  O   UNL     1      15.745 -10.823 -32.380  1.00  0.00    -0.266 OA
HETATM   17  C   UNL     1      16.097 -12.748 -31.126  1.00  0.00     0.046 A 
HETATM   18  C   UNL     1      16.673 -13.421 -32.213  1.00  0.00     0.018 A 
HETATM   19  C   UNL     1      15.865 -13.410 -29.925  1.00  0.00     0.003 A 
HETATM   20  C   UNL     1      17.007 -14.768 -32.099  1.00  0.00     0.001 A 
HETATM   21  C   UNL     1      16.743 -15.447 -30.911  1.00  0.00     0.001 A 
HETATM   22  C   UNL     1      16.173 -14.773 -29.824  1.00  0.00     0.014 A 
HETATM   23  C   UNL     1      15.324 -12.591 -28.817  1.00  0.00     0.033 C 
HETATM   24  C   UNL     1      14.909 -13.231 -27.507  1.00  0.00     0.070 C 
HETATM   25  N   UNL     1      15.154 -11.305 -28.904  1.00  0.00    -0.299 N 
HETATM   26  HN  UNL     1      14.815 -10.781 -28.097  1.00  0.00     0.187 HD
ENDBRANCH  13  14
ENDBRANCH   4  13
ENDBRANCH   2   3
TORSDOF 4
ENDMDL
MODEL 8
REMARK VINA RESULT:      -6.4      5.118      6.616
REMARK  4 active torsions:
REMARK  status: ('A' for Active; 'I' for Inactive)
REMARK    1  A    between atoms: C_2  and  N_3 
REMARK    2  A    between atoms: N_3  and  C_4 
REMARK       I    between atoms: N_3  and  C_11 
REMARK    3  A    between atoms: C_11  and  C_13 
REMARK    4  A    between atoms: C_13  and  N_14 
ROOT
HETATM    1  C   UNL     1      16.777  -6.019 -20.500  1.00  0.00     0.027 C 
HETATM    2  C   UNL     1      15.510  -5.170 -20.525  1.00  0.00     0.128 C 
ENDROOT
BRANCH   2   3
HETATM    3  N   UNL     1      14.378  -5.828 -21.189  1.00  0.00    -0.317 N 
HETATM    4  C   UNL     1      13.352  -6.449 -20.444  1.00  0.00     0.244 C 
HETATM    5  O   UNL     1      12.263  -6.786 -20.929  1.00  0.00    -0.271 OA
BRANCH   3   6
HETATM    6  C   UNL     1      14.285  -5.751 -22.635  1.00  0.00     0.037 A 
HETATM    7  C   UNL     1      13.727  -4.628 -23.269  1.00  0.00     0.030 A 
HETATM    8  C   UNL     1      13.653  -4.533 -24.665  1.00  0.00     0.003 A 
HETATM    9  C   UNL     1      14.132  -5.562 -25.462  1.00  0.00     0.007 A 
HETATM   10  C   UNL     1      14.676  -6.702 -24.871  1.00  0.00    -0.060 A 
HETATM   11  C   UNL     1      15.245  -7.801 -25.721  1.00  0.00     0.048 C 
HETATM   12  C   UNL     1      14.736  -6.793 -23.464  1.00  0.00     0.036 A 
ENDBRANCH   3   6
BRANCH   4  13
HETATM   13  C   UNL     1      13.513  -6.610 -18.917  1.00  0.00     0.255 C 
BRANCH  13  14
HETATM   14  N   UNL     1      14.401  -7.645 -18.381  1.00  0.00    -0.248 N 
HETATM   15  C   UNL     1      15.319  -7.315 -17.390  1.00  0.00     0.273 C 
HETATM   16  O   UNL     1      15.334  -6.256 -16.772  1.00  0.00    -0.266 OA
HETATM   17  C   UNL     1      16.312  -8.346 -17.041  1.00  0.00     0.046 A 
HETATM   18  C   UNL     1      17.083  -8.201 -15.878  1.00  0.00     0.018 A 
HETATM   19  C   UNL     1      16.480  -9.452 -17.868  1.00  0.00     0.003 A 
HETATM   20  C   UNL     1      18.035  -9.162 -15.549  1.00  0.00     0.001 A 
HETATM   21  C   UNL     1      18.234 -10.253 -16.393  1.00  0.00     0.001 A 
HETATM   22  C   UNL     1      17.461 -10.402 -17.550  1.00  0.00     0.014 A 
HETATM   23  C   UNL     1      15.566  -9.550 -19.028  1.00  0.00     0.033 C 
HETATM   24  C   UNL     1      15.743 -10.639 -20.068  1.00  0.00     0.070 C 
HETATM   25  N   UNL     1      14.591  -8.715 -19.235  1.00  0.00    -0.299 N 
HETATM   26  HN  UNL     1      13.965  -8.850 -20.028  1.00  0.00     0.187 HD
ENDBRANCH  13  14
ENDBRANCH   4  13
ENDBRANCH   2   3
TORSDOF 4
ENDMDL
MODEL 9
REMARK VINA RESULT:      -6.4      8.078      9.921
REMARK  4 active torsions:
REMARK  status: ('A' for Active; 'I' for Inactive)
REMARK    1  A    between atoms: C_2  and  N_3 
REMARK    2  A    between atoms: N_3  and  C_4 
REMARK       I    between atoms: N_3  and  C_11 
REMARK    3  A    between atoms: C_11  and  C_13 
REMARK    4  A    between atoms: C_13  and  N_14 
ROOT
HETATM    1  C   UNL     1       7.413  -3.206 -21.624  1.00  0.00     0.027 C 
HETATM    2  C   UNL     1       8.437  -4.173 -22.211  1.00  0.00     0.128 C 
ENDROOT
BRANCH   2   3
HETATM    3  N   UNL     1       9.392  -4.685 -21.221  1.00  0.00    -0.317 N 
HETATM    4  C   UNL     1       9.189  -5.928 -20.583  1.00  0.00     0.244 C 
HETATM    5  O   UNL     1      10.071  -6.522 -19.946  1.00  0.00    -0.271 OA
BRANCH   3   6
HETATM    6  C   UNL     1      10.603  -3.927 -20.973  1.00  0.00     0.037 A 
HETATM    7  C   UNL     1      10.653  -2.944 -19.970  1.00  0.00     0.030 A 
HETATM    8  C   UNL     1      11.825  -2.221 -19.706  1.00  0.00     0.003 A 
HETATM    9  C   UNL     1      12.975  -2.461 -20.444  1.00  0.00     0.007 A 
HETATM   10  C   UNL     1      12.961  -3.416 -21.460  1.00  0.00    -0.060 A 
HETATM   11  C   UNL     1      14.212  -3.722 -22.232  1.00  0.00     0.048 C 
HETATM   12  C   UNL     1      11.773  -4.130 -21.726  1.00  0.00     0.036 A 
ENDBRANCH   3   6
BRANCH   4  13
HETATM   13  C   UNL     1       7.853  -6.675 -20.780  1.00  0.00     0.255 C 
BRANCH  13  14
HETATM   14  N   UNL     1       7.498  -7.787 -19.893  1.00  0.00    -0.248 N 
HETATM   15  C   UNL     1       6.612  -7.573 -18.844  1.00  0.00     0.273 C 
HETATM   16  O   UNL     1       5.935  -6.562 -18.693  1.00  0.00    -0.266 OA
HETATM   17  C   UNL     1       6.456  -8.674 -17.877  1.00  0.00     0.046 A 
HETATM   18  C   UNL     1       5.393  -8.649 -16.963  1.00  0.00     0.018 A 
HETATM   19  C   UNL     1       7.367  -9.727 -17.876  1.00  0.00     0.003 A 
HETATM   20  C   UNL     1       5.248  -9.676 -16.035  1.00  0.00     0.001 A 
HETATM   21  C   UNL     1       6.177 -10.714 -16.004  1.00  0.00     0.001 A 
HETATM   22  C   UNL     1       7.235 -10.743 -16.919  1.00  0.00     0.014 A 
HETATM   23  C   UNL     1       8.406  -9.698 -18.928  1.00  0.00     0.033 C 
HETATM   24  C   UNL     1       9.527 -10.719 -18.943  1.00  0.00     0.070 C 
HETATM   25  N   UNL     1       8.435  -8.803 -19.871  1.00  0.00    -0.299 N 
HETATM   26  HN  UNL     1       9.151  -8.851 -20.596  1.00  0.00     0.187 HD
ENDBRANCH  13  14
ENDBRANCH   4  13
ENDBRANCH   2   3
TORSDOF 4
ENDMDL
