MODEL 1
REMARK VINA RESULT:      -8.2      0.000      0.000
REMARK  6 active torsions:
REMARK  status: ('A' for Active; 'I' for Inactive)
REMARK    1  A    between atoms: C_5  and  N_9 
REMARK       I    between atoms: N_9  and  C_10 
REMARK    2  A    between atoms: C_10  and  C_12 
REMARK    3  A    between atoms: C_12  and  N_14 
REMARK    4  A    between atoms: C_23  and  C_24 
REMARK    5  A    between atoms: C_29  and  S_31 
REMARK    6  A    between atoms: S_31  and  N_34 
ROOT
HETATM    1  C   UNL     1      22.517   1.941 -21.681  1.00  0.00     0.048 C 
HETATM    2  C   UNL     1      21.132   1.899 -21.109  1.00  0.00    -0.061 A 
HETATM    3  C   UNL     1      20.456   3.073 -20.797  1.00  0.00     0.009 A 
HETATM    4  C   UNL     1      19.172   3.026 -20.248  1.00  0.00     0.030 A 
HETATM    5  C   UNL     1      18.519   1.812 -19.995  1.00  0.00     0.040 A 
HETATM    6  C   UNL     1      19.192   0.613 -20.316  1.00  0.00    -0.035 A 
HETATM    7  C   UNL     1      18.618  -0.770 -20.156  1.00  0.00     0.050 C 
HETATM    8  C   UNL     1      20.488   0.679 -20.881  1.00  0.00     0.015 A 
ENDROOT
BRANCH   5   9
HETATM    9  N   UNL     1      17.221   1.783 -19.423  1.00  0.00    -0.325 N 
HETATM   10  C   UNL     1      16.875   2.055 -18.102  1.00  0.00     0.246 C 
HETATM   11  O   UNL     1      17.672   2.247 -17.183  1.00  0.00    -0.271 OA
HETATM   12  HN  UNL     1      16.439   1.685 -20.051  1.00  0.00     0.169 HD
BRANCH  10  13
HETATM   13  C   UNL     1      15.355   1.941 -17.798  1.00  0.00     0.199 C 
HETATM   14  C   UNL     1      14.520   2.559 -18.922  1.00  0.00     0.044 C 
BRANCH  13  15
HETATM   15  N   UNL     1      14.904   0.579 -17.468  1.00  0.00    -0.243 N 
HETATM   16  C   UNL     1      14.977   0.152 -16.154  1.00  0.00     0.269 C 
HETATM   17  O   UNL     1      15.290   0.878 -15.214  1.00  0.00    -0.266 OA
HETATM   18  C   UNL     1      14.541  -1.238 -15.898  1.00  0.00     0.020 C 
HETATM   19  C   UNL     1      14.296  -1.546 -14.441  1.00  0.00     0.045 C 
HETATM   20  C   UNL     1      14.350  -2.111 -16.904  1.00  0.00    -0.017 C 
HETATM   21  C   UNL     1      13.446  -2.792 -14.231  1.00  0.00     0.005 C 
HETATM   22  C   UNL     1      13.962  -3.913 -15.106  1.00  0.00     0.005 C 
HETATM   23  C   UNL     1      13.931  -3.528 -16.588  1.00  0.00     0.042 C 
HETATM   24  C   UNL     1      14.486  -1.543 -18.301  1.00  0.00     0.065 C 
HETATM   25  N   UNL     1      14.719  -0.280 -18.531  1.00  0.00    -0.294 N 
HETATM   26  HN  UNL     1      14.764   0.069 -19.488  1.00  0.00     0.187 HD
BRANCH  24  27
HETATM   27  C   UNL     1      14.249  -2.413 -19.520  1.00  0.00    -0.006 C 
HETATM   28  C   UNL     1      15.332  -2.788 -20.329  1.00  0.00     0.014 C 
HETATM   29  C   UNL     1      15.132  -3.481 -21.537  1.00  0.00     0.009 C 
HETATM   30  C   UNL     1      13.839  -3.756 -22.009  1.00  0.00    -0.039 C 
HETATM   31  C   UNL     1      13.660  -4.399 -23.355  1.00  0.00     0.050 C 
HETATM   32  C   UNL     1      12.765  -3.396 -21.184  1.00  0.00     0.081 C 
HETATM   33  C   UNL     1      12.990  -2.852 -19.909  1.00  0.00     0.039 C 
BRANCH  32  34
HETATM   34  S   UNL     1      11.075  -3.447 -21.734  1.00  0.00     0.239 S 
HETATM   35  O   UNL     1      10.928  -2.676 -22.941  1.00  0.00    -0.206 OA
HETATM   36  O   UNL     1      10.582  -4.803 -21.612  1.00  0.00    -0.206 OA
BRANCH  34  37
HETATM   37  N   UNL     1      10.279  -2.608 -20.511  1.00  0.00    -0.225 NA
HETATM   38  HN1 UNL     1      10.490  -1.611 -20.570  1.00  0.00     0.136 HD
HETATM   39  HN2 UNL     1       9.281  -2.816 -20.538  1.00  0.00     0.136 HD
ENDBRANCH  34  37
ENDBRANCH  32  34
ENDBRANCH  24  27
ENDBRANCH  13  15
ENDBRANCH  10  13
ENDBRANCH   5   9
TORSDOF 6
ENDMDL
MODEL 2
REMARK VINA RESULT:      -8.1     10.331     16.067
REMARK  6 active torsions:
REMARK  status: ('A' for Active; 'I' for Inactive)
REMARK    1  A    between atoms: C_5  and  N_9 
REMARK       I    between atoms: N_9  and  C_10 
REMARK    2  A    between atoms: C_10  and  C_12 
REMARK    3  A    between atoms: C_12  and  N_14 
REMARK    4  A    between atoms: C_23  and  C_24 
REMARK    5  A    between atoms: C_29  and  S_31 
REMARK    6  A    between atoms: S_31  and  N_34 
ROOT
HETATM    1  C   UNL     1      15.298 -16.236 -25.990  1.00  0.00     0.048 C 
HETATM    2  C   UNL     1      15.133 -15.348 -27.186  1.00  0.00    -0.061 A 
HETATM    3  C   UNL     1      15.053 -15.888 -28.465  1.00  0.00     0.009 A 
HETATM    4  C   UNL     1      14.916 -15.054 -29.578  1.00  0.00     0.030 A 
HETATM    5  C   UNL     1      14.852 -13.659 -29.455  1.00  0.00     0.040 A 
HETATM    6  C   UNL     1      14.923 -13.100 -28.160  1.00  0.00    -0.035 A 
HETATM    7  C   UNL     1      14.820 -11.631 -27.846  1.00  0.00     0.050 C 
HETATM    8  C   UNL     1      15.051 -13.960 -27.043  1.00  0.00     0.015 A 
ENDROOT
BRANCH   5   9
HETATM    9  N   UNL     1      14.729 -12.828 -30.598  1.00  0.00    -0.325 N 
HETATM   10  C   UNL     1      15.755 -12.355 -31.412  1.00  0.00     0.246 C 
HETATM   11  O   UNL     1      16.958 -12.490 -31.189  1.00  0.00    -0.271 OA
HETATM   12  HN  UNL     1      13.800 -12.657 -30.949  1.00  0.00     0.169 HD
BRANCH  10  13
HETATM   13  C   UNL     1      15.281 -11.465 -32.594  1.00  0.00     0.199 C 
HETATM   14  C   UNL     1      13.824 -11.763 -32.958  1.00  0.00     0.044 C 
BRANCH  13  15
HETATM   15  N   UNL     1      15.511 -10.024 -32.398  1.00  0.00    -0.243 N 
HETATM   16  C   UNL     1      16.020  -9.281 -33.447  1.00  0.00     0.269 C 
HETATM   17  O   UNL     1      16.191  -9.722 -34.580  1.00  0.00    -0.266 OA
HETATM   18  C   UNL     1      16.260  -7.847 -33.171  1.00  0.00     0.020 C 
HETATM   19  C   UNL     1      16.468  -7.010 -34.410  1.00  0.00     0.045 C 
HETATM   20  C   UNL     1      16.246  -7.361 -31.916  1.00  0.00    -0.017 C 
HETATM   21  C   UNL     1      16.272  -5.521 -34.160  1.00  0.00     0.005 C 
HETATM   22  C   UNL     1      17.014  -5.112 -32.907  1.00  0.00     0.005 C 
HETATM   23  C   UNL     1      16.523  -5.894 -31.684  1.00  0.00     0.042 C 
HETATM   24  C   UNL     1      15.845  -8.345 -30.836  1.00  0.00     0.065 C 
HETATM   25  N   UNL     1      15.483  -9.571 -31.096  1.00  0.00    -0.294 N 
HETATM   26  HN  UNL     1      15.183 -10.189 -30.342  1.00  0.00     0.187 HD
BRANCH  24  27
HETATM   27  C   UNL     1      15.745  -7.908 -29.387  1.00  0.00    -0.006 C 
HETATM   28  C   UNL     1      16.714  -8.329 -28.465  1.00  0.00     0.014 C 
HETATM   29  C   UNL     1      16.578  -8.054 -27.091  1.00  0.00     0.009 C 
HETATM   30  C   UNL     1      15.435  -7.414 -26.590  1.00  0.00    -0.039 C 
HETATM   31  C   UNL     1      15.272  -7.235 -25.107  1.00  0.00     0.050 C 
HETATM   32  C   UNL     1      14.482  -6.980 -27.521  1.00  0.00     0.081 C 
HETATM   33  C   UNL     1      14.711  -7.118 -28.900  1.00  0.00     0.039 C 
BRANCH  32  34
HETATM   34  S   UNL     1      12.878  -6.379 -27.043  1.00  0.00     0.239 S 
HETATM   35  O   UNL     1      12.161  -7.406 -26.333  1.00  0.00    -0.206 OA
HETATM   36  O   UNL     1      13.014  -5.031 -26.534  1.00  0.00    -0.206 OA
BRANCH  34  37
HETATM   37  N   UNL     1      12.116  -6.183 -28.531  1.00  0.00    -0.225 NA
HETATM   38  HN1 UNL     1      12.402  -6.920 -29.177  1.00  0.00     0.136 HD
HETATM   39  HN2 UNL     1      11.106  -6.125 -28.400  1.00  0.00     0.136 HD
ENDBRANCH  34  37
ENDBRANCH  32  34
ENDBRANCH  24  27
ENDBRANCH  13  15
ENDBRANCH  10  13
ENDBRANCH   5   9
TORSDOF 6
ENDMDL
MODEL 3
REMARK VINA RESULT:      -8.1      1.739      2.192
REMARK  6 active torsions:
REMARK  status: ('A' for Active; 'I' for Inactive)
REMARK    1  A    between atoms: C_5  and  N_9 
REMARK       I    between atoms: N_9  and  C_10 
REMARK    2  A    between atoms: C_10  and  C_12 
REMARK    3  A    between atoms: C_12  and  N_14 
REMARK    4  A    between atoms: C_23  and  C_24 
REMARK    5  A    between atoms: C_29  and  S_31 
REMARK    6  A    between atoms: S_31  and  N_34 
ROOT
HETATM    1  C   UNL     1      23.135  -2.924 -22.137  1.00  0.00     0.048 C 
HETATM    2  C   UNL     1      21.944  -2.218 -21.562  1.00  0.00    -0.061 A 
HETATM    3  C   UNL     1      21.112  -1.453 -22.372  1.00  0.00     0.009 A 
HETATM    4  C   UNL     1      20.014  -0.783 -21.826  1.00  0.00     0.030 A 
HETATM    5  C   UNL     1      19.707  -0.854 -20.461  1.00  0.00     0.040 A 
HETATM    6  C   UNL     1      20.539  -1.635 -19.630  1.00  0.00    -0.035 A 
HETATM    7  C   UNL     1      20.325  -1.859 -18.156  1.00  0.00     0.050 C 
HETATM    8  C   UNL     1      21.641  -2.316 -20.201  1.00  0.00     0.015 A 
ENDROOT
BRANCH   5   9
HETATM    9  N   UNL     1      18.597  -0.155 -19.922  1.00  0.00    -0.325 N 
HETATM   10  C   UNL     1      18.598   1.108 -19.335  1.00  0.00     0.246 C 
HETATM   11  O   UNL     1      19.604   1.772 -19.081  1.00  0.00    -0.271 OA
HETATM   12  HN  UNL     1      17.680  -0.540 -20.089  1.00  0.00     0.169 HD
BRANCH  10  13
HETATM   13  C   UNL     1      17.205   1.595 -18.848  1.00  0.00     0.199 C 
HETATM   14  C   UNL     1      16.482   2.381 -19.945  1.00  0.00     0.044 C 
BRANCH  13  15
HETATM   15  N   UNL     1      16.355   0.532 -18.287  1.00  0.00    -0.243 N 
HETATM   16  C   UNL     1      16.343   0.341 -16.918  1.00  0.00     0.269 C 
HETATM   17  O   UNL     1      16.913   1.077 -16.118  1.00  0.00    -0.266 OA
HETATM   18  C   UNL     1      15.494  -0.766 -16.424  1.00  0.00     0.020 C 
HETATM   19  C   UNL     1      15.226  -0.718 -14.939  1.00  0.00     0.045 C 
HETATM   20  C   UNL     1      14.989  -1.691 -17.260  1.00  0.00    -0.017 C 
HETATM   21  C   UNL     1      14.031  -1.566 -14.524  1.00  0.00     0.005 C 
HETATM   22  C   UNL     1      14.120  -2.928 -15.176  1.00  0.00     0.005 C 
HETATM   23  C   UNL     1      14.151  -2.818 -16.703  1.00  0.00     0.042 C 
HETATM   24  C   UNL     1      15.241  -1.450 -18.735  1.00  0.00     0.065 C 
HETATM   25  N   UNL     1      15.857  -0.392 -19.182  1.00  0.00    -0.294 N 
HETATM   26  HN  UNL     1      15.971  -0.248 -20.186  1.00  0.00     0.187 HD
BRANCH  24  27
HETATM   27  C   UNL     1      14.683  -2.395 -19.782  1.00  0.00    -0.006 C 
HETATM   28  C   UNL     1      15.555  -3.035 -20.675  1.00  0.00     0.014 C 
HETATM   29  C   UNL     1      15.062  -3.811 -21.741  1.00  0.00     0.009 C 
HETATM   30  C   UNL     1      13.684  -3.911 -21.988  1.00  0.00    -0.039 C 
HETATM   31  C   UNL     1      13.198  -4.657 -23.199  1.00  0.00     0.050 C 
HETATM   32  C   UNL     1      12.822  -3.285 -21.078  1.00  0.00     0.081 C 
HETATM   33  C   UNL     1      13.326  -2.652 -19.931  1.00  0.00     0.039 C 
BRANCH  32  34
HETATM   34  S   UNL     1      11.078  -3.107 -21.376  1.00  0.00     0.239 S 
HETATM   35  O   UNL     1      10.857  -2.587 -22.700  1.00  0.00    -0.206 OA
HETATM   36  O   UNL     1      10.394  -4.282 -20.878  1.00  0.00    -0.206 OA
BRANCH  34  37
HETATM   37  N   UNL     1      10.656  -1.892 -20.291  1.00  0.00    -0.225 NA
HETATM   38  HN1 UNL     1      11.186  -1.042 -20.486  1.00  0.00     0.136 HD
HETATM   39  HN2 UNL     1       9.645  -1.754 -20.299  1.00  0.00     0.136 HD
ENDBRANCH  34  37
ENDBRANCH  32  34
ENDBRANCH  24  27
ENDBRANCH  13  15
ENDBRANCH  10  13
ENDBRANCH   5   9
TORSDOF 6
ENDMDL
MODEL 4
REMARK VINA RESULT:      -7.9      2.123      2.937
REMARK  6 active torsions:
REMARK  status: ('A' for Active; 'I' for Inactive)
REMARK    1  A    between atoms: C_5  and  N_9 
REMARK       I    between atoms: N_9  and  C_10 
REMARK    2  A    between atoms: C_10  and  C_12 
REMARK    3  A    between atoms: C_12  and  N_14 
REMARK    4  A    between atoms: C_23  and  C_24 
REMARK    5  A    between atoms: C_29  and  S_31 
REMARK    6  A    between atoms: S_31  and  N_34 
ROOT
HETATM    1  C   UNL     1      21.947  -1.816 -22.396  1.00  0.00     0.048 C 
HETATM    2  C   UNL     1      20.829  -1.510 -21.445  1.00  0.00    -0.061 A 
HETATM    3  C   UNL     1      20.446  -2.433 -20.478  1.00  0.00     0.009 A 
HETATM    4  C   UNL     1      19.392  -2.148 -19.606  1.00  0.00     0.030 A 
HETATM    5  C   UNL     1      18.688  -0.938 -19.665  1.00  0.00     0.040 A 
HETATM    6  C   UNL     1      19.074   0.011 -20.637  1.00  0.00    -0.035 A 
HETATM    7  C   UNL     1      18.458   1.376 -20.806  1.00  0.00     0.050 C 
HETATM    8  C   UNL     1      20.150  -0.289 -21.506  1.00  0.00     0.015 A 
ENDROOT
BRANCH   5   9
HETATM    9  N   UNL     1      17.610  -0.672 -18.782  1.00  0.00    -0.325 N 
HETATM   10  C   UNL     1      17.687  -0.340 -17.432  1.00  0.00     0.246 C 
HETATM   11  O   UNL     1      18.718  -0.344 -16.757  1.00  0.00    -0.271 OA
HETATM   12  HN  UNL     1      16.690  -0.583 -19.185  1.00  0.00     0.169 HD
BRANCH  10  13
HETATM   13  C   UNL     1      16.313  -0.105 -16.746  1.00  0.00     0.199 C 
HETATM   14  C   UNL     1      15.654   1.179 -17.258  1.00  0.00     0.044 C 
BRANCH  13  15
HETATM   15  N   UNL     1      15.396  -1.255 -16.817  1.00  0.00    -0.243 N 
HETATM   16  C   UNL     1      15.494  -2.246 -15.858  1.00  0.00     0.269 C 
HETATM   17  O   UNL     1      16.228  -2.179 -14.875  1.00  0.00    -0.266 OA
HETATM   18  C   UNL     1      14.568  -3.389 -16.009  1.00  0.00     0.020 C 
HETATM   19  C   UNL     1      14.454  -4.254 -14.777  1.00  0.00     0.045 C 
HETATM   20  C   UNL     1      13.873  -3.586 -17.144  1.00  0.00    -0.017 C 
HETATM   21  C   UNL     1      13.210  -5.132 -14.779  1.00  0.00     0.005 C 
HETATM   22  C   UNL     1      13.065  -5.808 -16.125  1.00  0.00     0.005 C 
HETATM   23  C   UNL     1      12.960  -4.784 -17.259  1.00  0.00     0.042 C 
HETATM   24  C   UNL     1      14.007  -2.500 -18.192  1.00  0.00     0.065 C 
HETATM   25  N   UNL     1      14.703  -1.414 -17.999  1.00  0.00    -0.294 N 
HETATM   26  HN  UNL     1      14.735  -0.689 -18.715  1.00  0.00     0.187 HD
BRANCH  24  27
HETATM   27  C   UNL     1      13.238  -2.581 -19.496  1.00  0.00    -0.006 C 
HETATM   28  C   UNL     1      12.002  -1.927 -19.617  1.00  0.00     0.014 C 
HETATM   29  C   UNL     1      11.202  -2.091 -20.762  1.00  0.00     0.009 C 
HETATM   30  C   UNL     1      11.578  -2.970 -21.790  1.00  0.00    -0.039 C 
HETATM   31  C   UNL     1      10.648  -3.204 -22.947  1.00  0.00     0.050 C 
HETATM   32  C   UNL     1      12.823  -3.602 -21.669  1.00  0.00     0.081 C 
HETATM   33  C   UNL     1      13.680  -3.302 -20.598  1.00  0.00     0.039 C 
BRANCH  32  34
HETATM   34  S   UNL     1      13.337  -4.919 -22.747  1.00  0.00     0.239 S 
HETATM   35  O   UNL     1      12.386  -5.998 -22.693  1.00  0.00    -0.206 OA
HETATM   36  O   UNL     1      13.798  -4.351 -23.996  1.00  0.00    -0.206 OA
BRANCH  34  37
HETATM   37  N   UNL     1      14.744  -5.461 -21.997  1.00  0.00    -0.225 NA
HETATM   38  HN1 UNL     1      15.138  -6.250 -22.511  1.00  0.00     0.136 HD
HETATM   39  HN2 UNL     1      15.395  -4.685 -21.878  1.00  0.00     0.136 HD
ENDBRANCH  34  37
ENDBRANCH  32  34
ENDBRANCH  24  27
ENDBRANCH  13  15
ENDBRANCH  10  13
ENDBRANCH   5   9
TORSDOF 6
ENDMDL
MODEL 5
REMARK VINA RESULT:      -7.9      4.828      6.867
REMARK  6 active torsions:
REMARK  status: ('A' for Active; 'I' for Inactive)
REMARK    1  A    between atoms: C_5  and  N_9 
REMARK       I    between atoms: N_9  and  C_10 
REMARK    2  A    between atoms: C_10  and  C_12 
REMARK    3  A    between atoms: C_12  and  N_14 
REMARK    4  A    between atoms: C_23  and  C_24 
REMARK    5  A    between atoms: C_29  and  S_31 
REMARK    6  A    between atoms: S_31  and  N_34 
ROOT
HETATM    1  C   UNL     1      14.976  -7.200 -26.653  1.00  0.00     0.048 C 
HETATM    2  C   UNL     1      14.528  -6.416 -25.457  1.00  0.00    -0.061 A 
HETATM    3  C   UNL     1      13.884  -5.193 -25.609  1.00  0.00     0.009 A 
HETATM    4  C   UNL     1      13.485  -4.459 -24.489  1.00  0.00     0.030 A 
HETATM    5  C   UNL     1      13.710  -4.918 -23.184  1.00  0.00     0.040 A 
HETATM    6  C   UNL     1      14.356  -6.162 -23.017  1.00  0.00    -0.035 A 
HETATM    7  C   UNL     1      14.631  -6.822 -21.692  1.00  0.00     0.050 C 
HETATM    8  C   UNL     1      14.745  -6.898 -24.162  1.00  0.00     0.015 A 
ENDROOT
BRANCH   5   9
HETATM    9  N   UNL     1      13.312  -4.151 -22.059  1.00  0.00    -0.325 N 
HETATM   10  C   UNL     1      14.104  -3.300 -21.294  1.00  0.00     0.246 C 
HETATM   11  O   UNL     1      15.324  -3.174 -21.405  1.00  0.00    -0.271 OA
HETATM   12  HN  UNL     1      12.325  -4.104 -21.856  1.00  0.00     0.169 HD
BRANCH  10  13
HETATM   13  C   UNL     1      13.357  -2.600 -20.126  1.00  0.00     0.199 C 
HETATM   14  C   UNL     1      11.855  -2.511 -20.408  1.00  0.00     0.044 C 
BRANCH  13  15
HETATM   15  N   UNL     1      13.630  -3.176 -18.799  1.00  0.00    -0.243 N 
HETATM   16  C   UNL     1      13.716  -2.330 -17.709  1.00  0.00     0.269 C 
HETATM   17  O   UNL     1      13.467  -1.128 -17.753  1.00  0.00    -0.266 OA
HETATM   18  C   UNL     1      14.028  -2.970 -16.412  1.00  0.00     0.020 C 
HETATM   19  C   UNL     1      13.764  -2.091 -15.214  1.00  0.00     0.045 C 
HETATM   20  C   UNL     1      14.468  -4.241 -16.344  1.00  0.00    -0.017 C 
HETATM   21  C   UNL     1      13.660  -2.876 -13.913  1.00  0.00     0.005 C 
HETATM   22  C   UNL     1      14.803  -3.862 -13.819  1.00  0.00     0.005 C 
HETATM   23  C   UNL     1      14.798  -4.841 -14.997  1.00  0.00     0.042 C 
HETATM   24  C   UNL     1      14.496  -4.997 -17.656  1.00  0.00     0.065 C 
HETATM   25  N   UNL     1      14.075  -4.482 -18.778  1.00  0.00    -0.294 N 
HETATM   26  HN  UNL     1      14.075  -5.039 -19.632  1.00  0.00     0.187 HD
BRANCH  24  27
HETATM   27  C   UNL     1      14.927  -6.450 -17.705  1.00  0.00    -0.006 C 
HETATM   28  C   UNL     1      16.275  -6.783 -17.510  1.00  0.00     0.014 C 
HETATM   29  C   UNL     1      16.729  -8.104 -17.681  1.00  0.00     0.009 C 
HETATM   30  C   UNL     1      15.864  -9.117 -18.123  1.00  0.00    -0.039 C 
HETATM   31  C   UNL     1      16.407 -10.491 -18.401  1.00  0.00     0.050 C 
HETATM   32  C   UNL     1      14.516  -8.778 -18.296  1.00  0.00     0.081 C 
HETATM   33  C   UNL     1      14.049  -7.496 -17.965  1.00  0.00     0.039 C 
BRANCH  32  34
HETATM   34  S   UNL     1      13.346  -9.866 -19.079  1.00  0.00     0.239 S 
HETATM   35  O   UNL     1      13.796 -10.195 -20.406  1.00  0.00    -0.206 OA
HETATM   36  O   UNL     1      12.931 -10.873 -18.126  1.00  0.00    -0.206 OA
BRANCH  34  37
HETATM   37  N   UNL     1      11.997  -8.873 -19.245  1.00  0.00    -0.225 NA
HETATM   38  HN1 UNL     1      11.207  -9.259 -18.726  1.00  0.00     0.136 HD
HETATM   39  HN2 UNL     1      12.233  -7.917 -18.978  1.00  0.00     0.136 HD
ENDBRANCH  34  37
ENDBRANCH  32  34
ENDBRANCH  24  27
ENDBRANCH  13  15
ENDBRANCH  10  13
ENDBRANCH   5   9
TORSDOF 6
ENDMDL
MODEL 6
REMARK VINA RESULT:      -7.9      4.985      8.770
REMARK  6 active torsions:
REMARK  status: ('A' for Active; 'I' for Inactive)
REMARK    1  A    between atoms: C_5  and  N_9 
REMARK       I    between atoms: N_9  and  C_10 
REMARK    2  A    between atoms: C_10  and  C_12 
REMARK    3  A    between atoms: C_12  and  N_14 
REMARK    4  A    between atoms: C_23  and  C_24 
REMARK    5  A    between atoms: C_29  and  S_31 
REMARK    6  A    between atoms: S_31  and  N_34 
ROOT
HETATM    1  C   UNL     1      16.403  -5.525 -29.320  1.00  0.00     0.048 C 
HETATM    2  C   UNL     1      15.726  -5.953 -28.053  1.00  0.00    -0.061 A 
HETATM    3  C   UNL     1      16.016  -7.183 -27.473  1.00  0.00     0.009 A 
HETATM    4  C   UNL     1      15.368  -7.583 -26.301  1.00  0.00     0.030 A 
HETATM    5  C   UNL     1      14.415  -6.774 -25.668  1.00  0.00     0.040 A 
HETATM    6  C   UNL     1      14.118  -5.519 -26.243  1.00  0.00    -0.035 A 
HETATM    7  C   UNL     1      13.160  -4.510 -25.668  1.00  0.00     0.050 C 
HETATM    8  C   UNL     1      14.791  -5.125 -27.424  1.00  0.00     0.015 A 
ENDROOT
BRANCH   5   9
HETATM    9  N   UNL     1      13.756  -7.204 -24.488  1.00  0.00    -0.325 N 
HETATM   10  C   UNL     1      14.268  -7.220 -23.193  1.00  0.00     0.246 C 
HETATM   11  O   UNL     1      15.435  -6.972 -22.888  1.00  0.00    -0.271 OA
HETATM   12  HN  UNL     1      12.769  -7.400 -24.552  1.00  0.00     0.169 HD
BRANCH  10  13
HETATM   13  C   UNL     1      13.281  -7.749 -22.116  1.00  0.00     0.199 C 
HETATM   14  C   UNL     1      14.031  -8.426 -20.966  1.00  0.00     0.044 C 
BRANCH  13  15
HETATM   15  N   UNL     1      12.324  -6.743 -21.626  1.00  0.00    -0.243 N 
HETATM   16  C   UNL     1      11.155  -6.534 -22.334  1.00  0.00     0.269 C 
HETATM   17  O   UNL     1      10.803  -7.216 -23.293  1.00  0.00    -0.266 OA
HETATM   18  C   UNL     1      10.254  -5.485 -21.807  1.00  0.00     0.020 C 
HETATM   19  C   UNL     1       8.858  -5.531 -22.378  1.00  0.00     0.045 C 
HETATM   20  C   UNL     1      10.667  -4.610 -20.872  1.00  0.00    -0.017 C 
HETATM   21  C   UNL     1       7.846  -4.767 -21.535  1.00  0.00     0.005 C 
HETATM   22  C   UNL     1       8.408  -3.411 -21.168  1.00  0.00     0.005 C 
HETATM   23  C   UNL     1       9.718  -3.540 -20.385  1.00  0.00     0.042 C 
HETATM   24  C   UNL     1      12.054  -4.853 -20.312  1.00  0.00     0.065 C 
HETATM   25  N   UNL     1      12.790  -5.870 -20.665  1.00  0.00    -0.294 N 
HETATM   26  HN  UNL     1      13.702  -6.019 -20.235  1.00  0.00     0.187 HD
BRANCH  24  27
HETATM   27  C   UNL     1      12.616  -3.965 -19.219  1.00  0.00    -0.006 C 
HETATM   28  C   UNL     1      13.191  -4.546 -18.079  1.00  0.00     0.014 C 
HETATM   29  C   UNL     1      13.599  -3.756 -16.988  1.00  0.00     0.009 C 
HETATM   30  C   UNL     1      13.379  -2.370 -16.974  1.00  0.00    -0.039 C 
HETATM   31  C   UNL     1      13.727  -1.573 -15.748  1.00  0.00     0.050 C 
HETATM   32  C   UNL     1      12.823  -1.798 -18.125  1.00  0.00     0.081 C 
HETATM   33  C   UNL     1      12.571  -2.578 -19.266  1.00  0.00     0.039 C 
BRANCH  32  34
HETATM   34  S   UNL     1      12.255  -0.113 -18.181  1.00  0.00     0.239 S 
HETATM   35  O   UNL     1      11.140   0.059 -17.287  1.00  0.00    -0.206 OA
HETATM   36  O   UNL     1      13.403   0.769 -18.171  1.00  0.00    -0.206 OA
BRANCH  34  37
HETATM   37  N   UNL     1      11.656   0.007 -19.749  1.00  0.00    -0.225 NA
HETATM   38  HN1 UNL     1      10.732   0.442 -19.743  1.00  0.00     0.136 HD
HETATM   39  HN2 UNL     1      12.330   0.490 -20.343  1.00  0.00     0.136 HD
ENDBRANCH  34  37
ENDBRANCH  32  34
ENDBRANCH  24  27
ENDBRANCH  13  15
ENDBRANCH  10  13
ENDBRANCH   5   9
TORSDOF 6
ENDMDL
MODEL 7
REMARK VINA RESULT:      -7.8      1.474      1.760
REMARK  6 active torsions:
REMARK  status: ('A' for Active; 'I' for Inactive)
REMARK    1  A    between atoms: C_5  and  N_9 
REMARK       I    between atoms: N_9  and  C_10 
REMARK    2  A    between atoms: C_10  and  C_12 
REMARK    3  A    between atoms: C_12  and  N_14 
REMARK    4  A    between atoms: C_23  and  C_24 
REMARK    5  A    between atoms: C_29  and  S_31 
REMARK    6  A    between atoms: S_31  and  N_34 
ROOT
HETATM    1  C   UNL     1      22.437  -1.899 -22.416  1.00  0.00     0.048 C 
HETATM    2  C   UNL     1      21.291  -1.437 -21.568  1.00  0.00    -0.061 A 
HETATM    3  C   UNL     1      20.117  -0.973 -22.151  1.00  0.00     0.009 A 
HETATM    4  C   UNL     1      19.059  -0.527 -21.355  1.00  0.00     0.030 A 
HETATM    5  C   UNL     1      19.133  -0.529 -19.956  1.00  0.00     0.040 A 
HETATM    6  C   UNL     1      20.317  -1.006 -19.352  1.00  0.00    -0.035 A 
HETATM    7  C   UNL     1      20.544  -1.124 -17.867  1.00  0.00     0.050 C 
HETATM    8  C   UNL     1      21.375  -1.464 -20.173  1.00  0.00     0.015 A 
ENDROOT
BRANCH   5   9
HETATM    9  N   UNL     1      18.055  -0.058 -19.164  1.00  0.00    -0.325 N 
HETATM   10  C   UNL     1      17.366   1.144 -19.305  1.00  0.00     0.246 C 
HETATM   11  O   UNL     1      17.673   2.052 -20.078  1.00  0.00    -0.271 OA
HETATM   12  HN  UNL     1      17.645  -0.703 -18.507  1.00  0.00     0.169 HD
BRANCH  10  13
HETATM   13  C   UNL     1      16.225   1.358 -18.273  1.00  0.00     0.199 C 
HETATM   14  C   UNL     1      15.266   2.459 -18.732  1.00  0.00     0.044 C 
BRANCH  13  15
HETATM   15  N   UNL     1      15.506   0.128 -17.900  1.00  0.00    -0.243 N 
HETATM   16  C   UNL     1      15.514  -0.274 -16.578  1.00  0.00     0.269 C 
HETATM   17  O   UNL     1      15.990   0.391 -15.661  1.00  0.00    -0.266 OA
HETATM   18  C   UNL     1      14.802  -1.536 -16.278  1.00  0.00     0.020 C 
HETATM   19  C   UNL     1      14.527  -1.752 -14.810  1.00  0.00     0.045 C 
HETATM   20  C   UNL     1      14.414  -2.373 -17.258  1.00  0.00    -0.017 C 
HETATM   21  C   UNL     1      13.441  -2.789 -14.555  1.00  0.00     0.005 C 
HETATM   22  C   UNL     1      13.694  -4.013 -15.408  1.00  0.00     0.005 C 
HETATM   23  C   UNL     1      13.715  -3.663 -16.899  1.00  0.00     0.042 C 
HETATM   24  C   UNL     1      14.638  -1.877 -18.672  1.00  0.00     0.065 C 
HETATM   25  N   UNL     1      15.125  -0.697 -18.938  1.00  0.00    -0.294 N 
HETATM   26  HN  UNL     1      15.223  -0.387 -19.904  1.00  0.00     0.187 HD
BRANCH  24  27
HETATM   27  C   UNL     1      14.201  -2.707 -19.864  1.00  0.00    -0.006 C 
HETATM   28  C   UNL     1      15.151  -3.122 -20.809  1.00  0.00     0.014 C 
HETATM   29  C   UNL     1      14.761  -3.775 -21.992  1.00  0.00     0.009 C 
HETATM   30  C   UNL     1      13.406  -3.969 -22.300  1.00  0.00    -0.039 C 
HETATM   31  C   UNL     1      13.021  -4.572 -23.622  1.00  0.00     0.050 C 
HETATM   32  C   UNL     1      12.466  -3.570 -21.341  1.00  0.00     0.081 C 
HETATM   33  C   UNL     1      12.880  -3.067 -20.096  1.00  0.00     0.039 C 
BRANCH  32  34
HETATM   34  S   UNL     1      10.719  -3.517 -21.672  1.00  0.00     0.239 S 
HETATM   35  O   UNL     1      10.472  -2.777 -22.882  1.00  0.00    -0.206 OA
HETATM   36  O   UNL     1      10.157  -4.830 -21.434  1.00  0.00    -0.206 OA
BRANCH  34  37
HETATM   37  N   UNL     1      10.145  -2.584 -20.395  1.00  0.00    -0.225 NA
HETATM   38  HN1 UNL     1      10.693  -2.760 -19.552  1.00  0.00     0.136 HD
HETATM   39  HN2 UNL     1      10.117  -1.601 -20.666  1.00  0.00     0.136 HD
ENDBRANCH  34  37
ENDBRANCH  32  34
ENDBRANCH  24  27
ENDBRANCH  13  15
ENDBRANCH  10  13
ENDBRANCH   5   9
TORSDOF 6
ENDMDL
MODEL 8
REMARK VINA RESULT:      -7.8      3.441      8.080
REMARK  6 active torsions:
REMARK  status: ('A' for Active; 'I' for Inactive)
REMARK    1  A    between atoms: C_5  and  N_9 
REMARK       I    between atoms: N_9  and  C_10 
REMARK    2  A    between atoms: C_10  and  C_12 
REMARK    3  A    between atoms: C_12  and  N_14 
REMARK    4  A    between atoms: C_23  and  C_24 
REMARK    5  A    between atoms: C_29  and  S_31 
REMARK    6  A    between atoms: S_31  and  N_34 
ROOT
HETATM    1  C   UNL     1      10.037  -3.720 -22.398  1.00  0.00     0.048 C 
HETATM    2  C   UNL     1      11.100  -3.243 -21.455  1.00  0.00    -0.061 A 
HETATM    3  C   UNL     1      10.765  -2.537 -20.305  1.00  0.00     0.009 A 
HETATM    4  C   UNL     1      11.762  -2.080 -19.439  1.00  0.00     0.030 A 
HETATM    5  C   UNL     1      13.122  -2.312 -19.687  1.00  0.00     0.040 A 
HETATM    6  C   UNL     1      13.474  -3.036 -20.847  1.00  0.00    -0.035 A 
HETATM    7  C   UNL     1      14.879  -3.414 -21.238  1.00  0.00     0.050 C 
HETATM    8  C   UNL     1      12.451  -3.500 -21.709  1.00  0.00     0.015 A 
ENDROOT
BRANCH   5   9
HETATM    9  N   UNL     1      14.121  -1.827 -18.805  1.00  0.00    -0.325 N 
HETATM   10  C   UNL     1      14.728  -2.514 -17.757  1.00  0.00     0.246 C 
HETATM   11  O   UNL     1      14.396  -3.630 -17.352  1.00  0.00    -0.271 OA
HETATM   12  HN  UNL     1      14.542  -0.938 -19.024  1.00  0.00     0.169 HD
BRANCH  10  13
HETATM   13  C   UNL     1      15.795  -1.695 -16.981  1.00  0.00     0.199 C 
HETATM   14  C   UNL     1      16.922  -2.598 -16.474  1.00  0.00     0.044 C 
BRANCH  13  15
HETATM   15  N   UNL     1      16.317  -0.531 -17.716  1.00  0.00    -0.243 N 
HETATM   16  C   UNL     1      15.554   0.621 -17.770  1.00  0.00     0.269 C 
HETATM   17  O   UNL     1      14.508   0.781 -17.145  1.00  0.00    -0.266 OA
HETATM   18  C   UNL     1      16.121   1.740 -18.553  1.00  0.00     0.020 C 
HETATM   19  C   UNL     1      15.453   3.069 -18.299  1.00  0.00     0.045 C 
HETATM   20  C   UNL     1      17.168   1.560 -19.380  1.00  0.00    -0.017 C 
HETATM   21  C   UNL     1      16.297   4.255 -18.747  1.00  0.00     0.005 C 
HETATM   22  C   UNL     1      16.839   3.999 -20.136  1.00  0.00     0.005 C 
HETATM   23  C   UNL     1      17.694   2.728 -20.180  1.00  0.00     0.042 C 
HETATM   24  C   UNL     1      17.795   0.181 -19.353  1.00  0.00     0.065 C 
HETATM   25  N   UNL     1      17.392  -0.763 -18.548  1.00  0.00    -0.294 N 
HETATM   26  HN  UNL     1      17.868  -1.665 -18.534  1.00  0.00     0.187 HD
BRANCH  24  27
HETATM   27  C   UNL     1      19.010  -0.136 -20.203  1.00  0.00    -0.006 C 
HETATM   28  C   UNL     1      18.842  -0.730 -21.463  1.00  0.00     0.014 C 
HETATM   29  C   UNL     1      19.950  -1.159 -22.218  1.00  0.00     0.009 C 
HETATM   30  C   UNL     1      21.253  -1.072 -21.706  1.00  0.00    -0.039 C 
HETATM   31  C   UNL     1      22.401  -1.640 -22.492  1.00  0.00     0.050 C 
HETATM   32  C   UNL     1      21.412  -0.459 -20.456  1.00  0.00     0.081 C 
HETATM   33  C   UNL     1      20.314   0.108 -19.790  1.00  0.00     0.039 C 
BRANCH  32  34
HETATM   34  S   UNL     1      22.949  -0.489 -19.561  1.00  0.00     0.239 S 
HETATM   35  O   UNL     1      23.240  -1.832 -19.132  1.00  0.00    -0.206 OA
HETATM   36  O   UNL     1      23.915   0.332 -20.260  1.00  0.00    -0.206 OA
BRANCH  34  37
HETATM   37  N   UNL     1      22.573   0.401 -18.183  1.00  0.00    -0.225 NA
HETATM   38  HN1 UNL     1      21.627   0.778 -18.251  1.00  0.00     0.136 HD
HETATM   39  HN2 UNL     1      22.726  -0.168 -17.349  1.00  0.00     0.136 HD
ENDBRANCH  34  37
ENDBRANCH  32  34
ENDBRANCH  24  27
ENDBRANCH  13  15
ENDBRANCH  10  13
ENDBRANCH   5   9
TORSDOF 6
ENDMDL
MODEL 9
REMARK VINA RESULT:      -7.8      5.258      7.367
REMARK  6 active torsions:
REMARK  status: ('A' for Active; 'I' for Inactive)
REMARK    1  A    between atoms: C_5  and  N_9 
REMARK       I    between atoms: N_9  and  C_10 
REMARK    2  A    between atoms: C_10  and  C_12 
REMARK    3  A    between atoms: C_12  and  N_14 
REMARK    4  A    between atoms: C_23  and  C_24 
REMARK    5  A    between atoms: C_29  and  S_31 
REMARK    6  A    between atoms: S_31  and  N_34 
ROOT
HETATM    1  C   UNL     1      15.606  -7.544 -26.843  1.00  0.00     0.048 C 
HETATM    2  C   UNL     1      14.847  -6.679 -25.882  1.00  0.00    -0.061 A 
HETATM    3  C   UNL     1      14.072  -5.620 -26.340  1.00  0.00     0.009 A 
HETATM    4  C   UNL     1      13.381  -4.807 -25.437  1.00  0.00     0.030 A 
HETATM    5  C   UNL     1      13.437  -5.022 -24.053  1.00  0.00     0.040 A 
HETATM    6  C   UNL     1      14.214  -6.100 -23.578  1.00  0.00    -0.035 A 
HETATM    7  C   UNL     1      14.344  -6.501 -22.131  1.00  0.00     0.050 C 
HETATM    8  C   UNL     1      14.899  -6.920 -24.506  1.00  0.00     0.015 A 
ENDROOT
BRANCH   5   9
HETATM    9  N   UNL     1      12.741  -4.177 -23.151  1.00  0.00    -0.325 N 
HETATM   10  C   UNL     1      11.548  -4.451 -22.487  1.00  0.00     0.246 C 
HETATM   11  O   UNL     1      10.839  -5.439 -22.679  1.00  0.00    -0.271 OA
HETATM   12  HN  UNL     1      13.210  -3.338 -22.846  1.00  0.00     0.169 HD
BRANCH  10  13
HETATM   13  C   UNL     1      11.051  -3.309 -21.559  1.00  0.00     0.199 C 
HETATM   14  C   UNL     1       9.526  -3.336 -21.420  1.00  0.00     0.044 C 
BRANCH  13  15
HETATM   15  N   UNL     1      11.717  -3.260 -20.247  1.00  0.00    -0.243 N 
HETATM   16  C   UNL     1      11.836  -2.042 -19.604  1.00  0.00     0.269 C 
HETATM   17  O   UNL     1      11.320  -1.002 -20.004  1.00  0.00    -0.266 OA
HETATM   18  C   UNL     1      12.548  -2.059 -18.307  1.00  0.00     0.020 C 
HETATM   19  C   UNL     1      12.348  -0.812 -17.481  1.00  0.00     0.045 C 
HETATM   20  C   UNL     1      13.266  -3.127 -17.913  1.00  0.00    -0.017 C 
HETATM   21  C   UNL     1      12.697  -1.010 -16.012  1.00  0.00     0.005 C 
HETATM   22  C   UNL     1      14.027  -1.721 -15.895  1.00  0.00     0.005 C 
HETATM   23  C   UNL     1      13.997  -3.085 -16.592  1.00  0.00     0.042 C 
HETATM   24  C   UNL     1      13.190  -4.339 -18.819  1.00  0.00     0.065 C 
HETATM   25  N   UNL     1      12.439  -4.379 -19.885  1.00  0.00    -0.294 N 
HETATM   26  HN  UNL     1      12.386  -5.229 -20.445  1.00  0.00     0.187 HD
BRANCH  24  27
HETATM   27  C   UNL     1      13.916  -5.622 -18.462  1.00  0.00    -0.006 C 
HETATM   28  C   UNL     1      15.271  -5.577 -18.103  1.00  0.00     0.014 C 
HETATM   29  C   UNL     1      16.008  -6.758 -17.897  1.00  0.00     0.009 C 
HETATM   30  C   UNL     1      15.432  -8.019 -18.114  1.00  0.00    -0.039 C 
HETATM   31  C   UNL     1      16.278  -9.255 -17.991  1.00  0.00     0.050 C 
HETATM   32  C   UNL     1      14.073  -8.053 -18.453  1.00  0.00     0.081 C 
HETATM   33  C   UNL     1      13.313  -6.873 -18.496  1.00  0.00     0.039 C 
BRANCH  32  34
HETATM   34  S   UNL     1      13.257  -9.537 -18.998  1.00  0.00     0.239 S 
HETATM   35  O   UNL     1      13.797  -9.955 -20.266  1.00  0.00    -0.206 OA
HETATM   36  O   UNL     1      13.122 -10.439 -17.875  1.00  0.00    -0.206 OA
BRANCH  34  37
HETATM   37  N   UNL     1      11.689  -8.995 -19.283  1.00  0.00    -0.225 NA
HETATM   38  HN1 UNL     1      11.116  -9.750 -19.661  1.00  0.00     0.136 HD
HETATM   39  HN2 UNL     1      11.306  -8.577 -18.434  1.00  0.00     0.136 HD
ENDBRANCH  34  37
ENDBRANCH  32  34
ENDBRANCH  24  27
ENDBRANCH  13  15
ENDBRANCH  10  13
ENDBRANCH   5   9
TORSDOF 6
ENDMDL
