MODEL 1
REMARK VINA RESULT:      -7.9      0.000      0.000
REMARK  6 active torsions:
REMARK  status: ('A' for Active; 'I' for Inactive)
REMARK    1  A    between atoms: C_6  and  N_10 
REMARK       I    between atoms: N_10  and  C_11 
REMARK    2  A    between atoms: C_11  and  C_13 
REMARK    3  A    between atoms: C_13  and  N_14 
REMARK    4  A    between atoms: C_23  and  N_26 
REMARK    5  A    between atoms: N_26  and  C_27 
REMARK       I    between atoms: N_26  and  C_35 
REMARK    6  A    between atoms: C_27  and  C_28 
ROOT
HETATM    1  C   UNL     1      13.359  -4.729 -24.455  1.00  0.00     0.048 C 
HETATM    2  C   UNL     1      13.327  -4.100 -23.094  1.00  0.00    -0.061 A 
HETATM    3  C   UNL     1      12.129  -3.691 -22.502  1.00  0.00     0.015 A 
HETATM    4  C   UNL     1      12.106  -3.097 -21.224  1.00  0.00    -0.034 A 
HETATM    5  C   UNL     1      10.784  -2.584 -20.713  1.00  0.00     0.050 C 
HETATM    6  C   UNL     1      13.314  -2.928 -20.509  1.00  0.00     0.046 A 
HETATM    7  C   UNL     1      14.534  -3.315 -21.107  1.00  0.00    -0.034 A 
HETATM    8  C   UNL     1      15.880  -3.230 -20.441  1.00  0.00     0.050 C 
HETATM    9  C   UNL     1      14.513  -3.910 -22.386  1.00  0.00     0.015 A 
ENDROOT
BRANCH   6  10
HETATM   10  N   UNL     1      13.327  -2.294 -19.240  1.00  0.00    -0.325 N 
HETATM   11  C   UNL     1      13.174  -2.986 -18.045  1.00  0.00     0.240 C 
HETATM   12  O   UNL     1      13.005  -4.201 -17.944  1.00  0.00    -0.271 OA
HETATM   13  HN  UNL     1      13.847  -1.422 -19.163  1.00  0.00     0.169 HD
BRANCH  11  14
HETATM   14  C   UNL     1      13.400  -2.136 -16.789  1.00  0.00     0.235 C 
BRANCH  14  15
HETATM   15  N   UNL     1      14.779  -1.746 -16.503  1.00  0.00    -0.300 N 
HETATM   16  C   UNL     1      15.622  -2.536 -15.665  1.00  0.00     0.065 A 
HETATM   17  C   UNL     1      15.162  -3.663 -14.964  1.00  0.00     0.032 A 
HETATM   18  C   UNL     1      16.983  -2.195 -15.564  1.00  0.00     0.061 A 
HETATM   19  C   UNL     1      16.057  -4.491 -14.276  1.00  0.00     0.002 A 
HETATM   20  C   UNL     1      17.407  -4.170 -14.217  1.00  0.00     0.002 A 
HETATM   21  C   UNL     1      17.858  -3.005 -14.830  1.00  0.00     0.032 A 
HETATM   22  N   UNL     1      17.572  -1.152 -16.284  1.00  0.00    -0.336 N 
HETATM   23  C   UNL     1      16.840  -0.477 -17.120  1.00  0.00     0.180 C 
HETATM   24  HN  UNL     1      18.558  -0.923 -16.156  1.00  0.00     0.168 HD
HETATM   25  C   UNL     1      15.299  -0.630 -17.166  1.00  0.00     0.293 C 
HETATM   26  O   UNL     1      14.592   0.233 -17.681  1.00  0.00    -0.264 OA
BRANCH  23  27
HETATM   27  N   UNL     1      17.485   0.397 -18.013  1.00  0.00    -0.295 N 
HETATM   28  C   UNL     1      17.917   1.637 -17.569  1.00  0.00     0.221 C 
HETATM   29  O   UNL     1      17.717   2.046 -16.419  1.00  0.00    -0.273 OA
HETATM   30  C   UNL     1      18.576   2.592 -18.552  1.00  0.00     0.117 C 
BRANCH  27  31
HETATM   31  C   UNL     1      17.355   0.098 -19.443  1.00  0.00     0.172 C 
BRANCH  31  32
HETATM   32  C   UNL     1      18.580  -0.546 -20.071  1.00  0.00    -0.040 A 
HETATM   33  C   UNL     1      19.248  -1.646 -19.507  1.00  0.00     0.012 A 
HETATM   34  C   UNL     1      20.291  -2.272 -20.195  1.00  0.00     0.043 A 
HETATM   35  C   UNL     1      20.675  -1.800 -21.443  1.00  0.00     0.116 A 
HETATM   36  C   UNL     1      20.060  -0.691 -22.005  1.00  0.00     0.043 A 
HETATM   37  F   UNL     1      21.643  -2.432 -22.120  1.00  0.00    -0.206 F 
HETATM   38  C   UNL     1      19.021  -0.060 -21.317  1.00  0.00     0.012 A 
ENDBRANCH  31  32
ENDBRANCH  27  31
ENDBRANCH  23  27
ENDBRANCH  14  15
ENDBRANCH  11  14
ENDBRANCH   6  10
TORSDOF 6
ENDMDL
MODEL 2
REMARK VINA RESULT:      -7.9      0.273      1.480
REMARK  6 active torsions:
REMARK  status: ('A' for Active; 'I' for Inactive)
REMARK    1  A    between atoms: C_6  and  N_10 
REMARK       I    between atoms: N_10  and  C_11 
REMARK    2  A    between atoms: C_11  and  C_13 
REMARK    3  A    between atoms: C_13  and  N_14 
REMARK    4  A    between atoms: C_23  and  N_26 
REMARK    5  A    between atoms: N_26  and  C_27 
REMARK       I    between atoms: N_26  and  C_35 
REMARK    6  A    between atoms: C_27  and  C_28 
ROOT
HETATM    1  C   UNL     1      13.101  -4.781 -24.473  1.00  0.00     0.048 C 
HETATM    2  C   UNL     1      13.211  -4.121 -23.131  1.00  0.00    -0.061 A 
HETATM    3  C   UNL     1      14.447  -3.912 -22.514  1.00  0.00     0.015 A 
HETATM    4  C   UNL     1      14.542  -3.296 -21.250  1.00  0.00    -0.034 A 
HETATM    5  C   UNL     1      15.905  -3.215 -20.611  1.00  0.00     0.050 C 
HETATM    6  C   UNL     1      13.370  -2.855 -20.595  1.00  0.00     0.046 A 
HETATM    7  C   UNL     1      12.112  -3.082 -21.198  1.00  0.00    -0.034 A 
HETATM    8  C   UNL     1      10.795  -2.627 -20.631  1.00  0.00     0.050 C 
HETATM    9  C   UNL     1      12.060  -3.699 -22.466  1.00  0.00     0.015 A 
ENDROOT
BRANCH   6  10
HETATM   10  N   UNL     1      13.431  -2.271 -19.304  1.00  0.00    -0.325 N 
HETATM   11  C   UNL     1      13.359  -3.014 -18.132  1.00  0.00     0.240 C 
HETATM   12  O   UNL     1      13.229  -4.237 -18.072  1.00  0.00    -0.271 OA
HETATM   13  HN  UNL     1      13.929  -1.388 -19.218  1.00  0.00     0.169 HD
BRANCH  11  14
HETATM   14  C   UNL     1      13.625  -2.208 -16.855  1.00  0.00     0.235 C 
BRANCH  14  15
HETATM   15  N   UNL     1      15.007  -1.799 -16.617  1.00  0.00    -0.300 N 
HETATM   16  C   UNL     1      15.879  -2.560 -15.780  1.00  0.00     0.065 A 
HETATM   17  C   UNL     1      15.448  -3.670 -15.038  1.00  0.00     0.032 A 
HETATM   18  C   UNL     1      17.239  -2.205 -15.726  1.00  0.00     0.061 A 
HETATM   19  C   UNL     1      16.368  -4.472 -14.352  1.00  0.00     0.002 A 
HETATM   20  C   UNL     1      17.717  -4.138 -14.338  1.00  0.00     0.002 A 
HETATM   21  C   UNL     1      18.141  -2.987 -14.994  1.00  0.00     0.032 A 
HETATM   22  N   UNL     1      17.799  -1.176 -16.489  1.00  0.00    -0.336 N 
HETATM   23  C   UNL     1      17.040  -0.530 -17.323  1.00  0.00     0.180 C 
HETATM   24  HN  UNL     1      18.787  -0.936 -16.394  1.00  0.00     0.168 HD
HETATM   25  C   UNL     1      15.500  -0.697 -17.323  1.00  0.00     0.293 C 
HETATM   26  O   UNL     1      14.772   0.145 -17.842  1.00  0.00    -0.264 OA
BRANCH  23  27
HETATM   27  N   UNL     1      17.653   0.324 -18.256  1.00  0.00    -0.295 N 
HETATM   28  C   UNL     1      18.024   1.604 -17.875  1.00  0.00     0.221 C 
HETATM   29  O   UNL     1      17.795   2.063 -16.749  1.00  0.00    -0.273 OA
HETATM   30  C   UNL     1      18.649   2.536 -18.902  1.00  0.00     0.117 C 
BRANCH  27  31
HETATM   31  C   UNL     1      17.550  -0.055 -19.670  1.00  0.00     0.172 C 
BRANCH  31  32
HETATM   32  C   UNL     1      18.801  -0.696 -20.248  1.00  0.00    -0.040 A 
HETATM   33  C   UNL     1      19.513  -1.720 -19.601  1.00  0.00     0.012 A 
HETATM   34  C   UNL     1      20.581  -2.355 -20.240  1.00  0.00     0.043 A 
HETATM   35  C   UNL     1      20.946  -1.967 -21.522  1.00  0.00     0.116 A 
HETATM   36  C   UNL     1      20.287  -0.931 -22.168  1.00  0.00     0.043 A 
HETATM   37  F   UNL     1      21.940  -2.610 -22.150  1.00  0.00    -0.206 F 
HETATM   38  C   UNL     1      19.222  -0.292 -21.530  1.00  0.00     0.012 A 
ENDBRANCH  31  32
ENDBRANCH  27  31
ENDBRANCH  23  27
ENDBRANCH  14  15
ENDBRANCH  11  14
ENDBRANCH   6  10
TORSDOF 6
ENDMDL
MODEL 3
REMARK VINA RESULT:      -7.7      2.700      7.222
REMARK  6 active torsions:
REMARK  status: ('A' for Active; 'I' for Inactive)
REMARK    1  A    between atoms: C_6  and  N_10 
REMARK       I    between atoms: N_10  and  C_11 
REMARK    2  A    between atoms: C_11  and  C_13 
REMARK    3  A    between atoms: C_13  and  N_14 
REMARK    4  A    between atoms: C_23  and  N_26 
REMARK    5  A    between atoms: N_26  and  C_27 
REMARK       I    between atoms: N_26  and  C_35 
REMARK    6  A    between atoms: C_27  and  C_28 
ROOT
HETATM    1  C   UNL     1      23.153  -3.482 -21.800  1.00  0.00     0.048 C 
HETATM    2  C   UNL     1      22.374  -2.605 -20.864  1.00  0.00    -0.061 A 
HETATM    3  C   UNL     1      20.978  -2.548 -20.901  1.00  0.00     0.015 A 
HETATM    4  C   UNL     1      20.253  -1.719 -20.022  1.00  0.00    -0.034 A 
HETATM    5  C   UNL     1      18.760  -1.635 -20.210  1.00  0.00     0.050 C 
HETATM    6  C   UNL     1      20.943  -0.942 -19.063  1.00  0.00     0.046 A 
HETATM    7  C   UNL     1      22.355  -0.973 -19.032  1.00  0.00    -0.034 A 
HETATM    8  C   UNL     1      23.207  -0.231 -18.038  1.00  0.00     0.050 C 
HETATM    9  C   UNL     1      23.043  -1.819 -19.927  1.00  0.00     0.015 A 
ENDROOT
BRANCH   6  10
HETATM   10  N   UNL     1      20.243  -0.066 -18.195  1.00  0.00    -0.325 N 
HETATM   11  C   UNL     1      19.878   1.226 -18.555  1.00  0.00     0.240 C 
HETATM   12  O   UNL     1      20.117   1.756 -19.640  1.00  0.00    -0.271 OA
HETATM   13  HN  UNL     1      19.654  -0.492 -17.482  1.00  0.00     0.169 HD
BRANCH  11  14
HETATM   14  C   UNL     1      18.975   1.934 -17.537  1.00  0.00     0.235 C 
BRANCH  14  15
HETATM   15  N   UNL     1      17.537   1.716 -17.676  1.00  0.00    -0.300 N 
HETATM   16  C   UNL     1      16.707   2.632 -18.392  1.00  0.00     0.065 A 
HETATM   17  C   UNL     1      17.179   3.851 -18.902  1.00  0.00     0.032 A 
HETATM   18  C   UNL     1      15.366   2.280 -18.630  1.00  0.00     0.061 A 
HETATM   19  C   UNL     1      16.369   4.644 -19.724  1.00  0.00     0.002 A 
HETATM   20  C   UNL     1      15.058   4.268 -19.989  1.00  0.00     0.002 A 
HETATM   21  C   UNL     1      14.551   3.108 -19.413  1.00  0.00     0.032 A 
HETATM   22  N   UNL     1      14.810   1.055 -18.250  1.00  0.00    -0.336 N 
HETATM   23  C   UNL     1      15.574   0.173 -17.677  1.00  0.00     0.180 C 
HETATM   24  HN  UNL     1      13.824   0.857 -18.419  1.00  0.00     0.168 HD
HETATM   25  C   UNL     1      17.001   0.521 -17.187  1.00  0.00     0.293 C 
HETATM   26  O   UNL     1      17.572  -0.177 -16.353  1.00  0.00    -0.264 OA
BRANCH  23  27
HETATM   27  N   UNL     1      15.079  -1.134 -17.523  1.00  0.00    -0.295 N 
HETATM   28  C   UNL     1      14.318  -1.454 -16.410  1.00  0.00     0.221 C 
HETATM   29  O   UNL     1      14.088  -0.649 -15.499  1.00  0.00    -0.273 OA
HETATM   30  C   UNL     1      13.822  -2.881 -16.231  1.00  0.00     0.117 C 
BRANCH  27  31
HETATM   31  C   UNL     1      15.682  -2.175 -18.363  1.00  0.00     0.172 C 
BRANCH  31  32
HETATM   32  C   UNL     1      14.880  -2.533 -19.604  1.00  0.00    -0.040 A 
HETATM   33  C   UNL     1      15.426  -3.212 -20.707  1.00  0.00     0.012 A 
HETATM   34  C   UNL     1      14.608  -3.624 -21.762  1.00  0.00     0.043 A 
HETATM   35  C   UNL     1      13.246  -3.355 -21.725  1.00  0.00     0.116 A 
HETATM   36  C   UNL     1      12.688  -2.650 -20.668  1.00  0.00     0.043 A 
HETATM   37  F   UNL     1      12.459  -3.793 -22.716  1.00  0.00    -0.206 F 
HETATM   38  C   UNL     1      13.504  -2.234 -19.614  1.00  0.00     0.012 A 
ENDBRANCH  31  32
ENDBRANCH  27  31
ENDBRANCH  23  27
ENDBRANCH  14  15
ENDBRANCH  11  14
ENDBRANCH   6  10
TORSDOF 6
ENDMDL
MODEL 4
REMARK VINA RESULT:      -7.7      2.052      3.080
REMARK  6 active torsions:
REMARK  status: ('A' for Active; 'I' for Inactive)
REMARK    1  A    between atoms: C_6  and  N_10 
REMARK       I    between atoms: N_10  and  C_11 
REMARK    2  A    between atoms: C_11  and  C_13 
REMARK    3  A    between atoms: C_13  and  N_14 
REMARK    4  A    between atoms: C_23  and  N_26 
REMARK    5  A    between atoms: N_26  and  C_27 
REMARK       I    between atoms: N_26  and  C_35 
REMARK    6  A    between atoms: C_27  and  C_28 
ROOT
HETATM    1  C   UNL     1      13.020  -5.047 -25.102  1.00  0.00     0.048 C 
HETATM    2  C   UNL     1      12.970  -4.387 -23.757  1.00  0.00    -0.061 A 
HETATM    3  C   UNL     1      11.759  -4.021 -23.162  1.00  0.00     0.015 A 
HETATM    4  C   UNL     1      11.719  -3.397 -21.899  1.00  0.00    -0.034 A 
HETATM    5  C   UNL     1      10.378  -2.935 -21.388  1.00  0.00     0.050 C 
HETATM    6  C   UNL     1      12.924  -3.151 -21.201  1.00  0.00     0.046 A 
HETATM    7  C   UNL     1      14.155  -3.494 -21.803  1.00  0.00    -0.034 A 
HETATM    8  C   UNL     1      15.502  -3.327 -21.152  1.00  0.00     0.050 C 
HETATM    9  C   UNL     1      14.152  -4.121 -23.066  1.00  0.00     0.015 A 
ENDROOT
BRANCH   6  10
HETATM   10  N   UNL     1      12.918  -2.485 -19.949  1.00  0.00    -0.325 N 
HETATM   11  C   UNL     1      12.748  -3.146 -18.739  1.00  0.00     0.240 C 
HETATM   12  O   UNL     1      12.577  -4.359 -18.610  1.00  0.00    -0.271 OA
HETATM   13  HN  UNL     1      13.436  -1.611 -19.887  1.00  0.00     0.169 HD
BRANCH  11  14
HETATM   14  C   UNL     1      12.954  -2.264 -17.502  1.00  0.00     0.235 C 
BRANCH  14  15
HETATM   15  N   UNL     1      14.289  -2.276 -16.907  1.00  0.00    -0.300 N 
HETATM   16  C   UNL     1      14.563  -2.982 -15.697  1.00  0.00     0.065 A 
HETATM   17  C   UNL     1      13.563  -3.605 -14.934  1.00  0.00     0.032 A 
HETATM   18  C   UNL     1      15.898  -3.091 -15.268  1.00  0.00     0.061 A 
HETATM   19  C   UNL     1      13.898  -4.411 -13.838  1.00  0.00     0.002 A 
HETATM   20  C   UNL     1      15.224  -4.547 -13.446  1.00  0.00     0.002 A 
HETATM   21  C   UNL     1      16.213  -3.858 -14.140  1.00  0.00     0.032 A 
HETATM   22  N   UNL     1      16.984  -2.589 -15.991  1.00  0.00    -0.336 N 
HETATM   23  C   UNL     1      16.763  -2.022 -17.140  1.00  0.00     0.180 C 
HETATM   24  HN  UNL     1      17.933  -2.667 -15.625  1.00  0.00     0.168 HD
HETATM   25  C   UNL     1      15.331  -1.669 -17.615  1.00  0.00     0.293 C 
HETATM   26  O   UNL     1      15.144  -0.839 -18.501  1.00  0.00    -0.264 OA
BRANCH  23  27
HETATM   27  N   UNL     1      17.864  -1.745 -17.968  1.00  0.00    -0.295 N 
HETATM   28  C   UNL     1      18.419  -2.757 -18.735  1.00  0.00     0.221 C 
HETATM   29  O   UNL     1      18.021  -3.927 -18.692  1.00  0.00    -0.273 OA
HETATM   30  C   UNL     1      19.636  -2.458 -19.596  1.00  0.00     0.117 C 
BRANCH  27  31
HETATM   31  C   UNL     1      18.586  -0.492 -17.715  1.00  0.00     0.172 C 
BRANCH  31  32
HETATM   32  C   UNL     1      18.048   0.714 -18.467  1.00  0.00    -0.040 A 
HETATM   33  C   UNL     1      18.143   0.859 -19.862  1.00  0.00     0.012 A 
HETATM   34  C   UNL     1      17.518   1.929 -20.508  1.00  0.00     0.043 A 
HETATM   35  C   UNL     1      16.805   2.861 -19.766  1.00  0.00     0.116 A 
HETATM   36  C   UNL     1      16.731   2.765 -18.384  1.00  0.00     0.043 A 
HETATM   37  F   UNL     1      16.169   3.859 -20.394  1.00  0.00    -0.206 F 
HETATM   38  C   UNL     1      17.357   1.699 -17.735  1.00  0.00     0.012 A 
ENDBRANCH  31  32
ENDBRANCH  27  31
ENDBRANCH  23  27
ENDBRANCH  14  15
ENDBRANCH  11  14
ENDBRANCH   6  10
TORSDOF 6
ENDMDL
MODEL 5
REMARK VINA RESULT:      -7.7      2.589      3.683
REMARK  6 active torsions:
REMARK  status: ('A' for Active; 'I' for Inactive)
REMARK    1  A    between atoms: C_6  and  N_10 
REMARK       I    between atoms: N_10  and  C_11 
REMARK    2  A    between atoms: C_11  and  C_13 
REMARK    3  A    between atoms: C_13  and  N_14 
REMARK    4  A    between atoms: C_23  and  N_26 
REMARK    5  A    between atoms: N_26  and  C_27 
REMARK       I    between atoms: N_26  and  C_35 
REMARK    6  A    between atoms: C_27  and  C_28 
ROOT
HETATM    1  C   UNL     1      13.656  -4.982 -25.080  1.00  0.00     0.048 C 
HETATM    2  C   UNL     1      14.106  -5.093 -23.654  1.00  0.00    -0.061 A 
HETATM    3  C   UNL     1      14.024  -4.013 -22.770  1.00  0.00     0.015 A 
HETATM    4  C   UNL     1      14.453  -4.124 -21.432  1.00  0.00    -0.034 A 
HETATM    5  C   UNL     1      14.434  -2.877 -20.585  1.00  0.00     0.050 C 
HETATM    6  C   UNL     1      14.958  -5.356 -20.958  1.00  0.00     0.046 A 
HETATM    7  C   UNL     1      15.068  -6.448 -21.848  1.00  0.00    -0.034 A 
HETATM    8  C   UNL     1      15.546  -7.822 -21.463  1.00  0.00     0.050 C 
HETATM    9  C   UNL     1      14.624  -6.298 -23.178  1.00  0.00     0.015 A 
ENDROOT
BRANCH   6  10
HETATM   10  N   UNL     1      15.437  -5.486 -19.630  1.00  0.00    -0.325 N 
HETATM   11  C   UNL     1      14.645  -5.928 -18.577  1.00  0.00     0.240 C 
HETATM   12  O   UNL     1      13.459  -6.246 -18.665  1.00  0.00    -0.271 OA
HETATM   13  HN  UNL     1      16.435  -5.653 -19.511  1.00  0.00     0.169 HD
BRANCH  11  14
HETATM   14  C   UNL     1      15.408  -6.164 -17.268  1.00  0.00     0.235 C 
BRANCH  14  15
HETATM   15  N   UNL     1      15.598  -5.001 -16.404  1.00  0.00    -0.300 N 
HETATM   16  C   UNL     1      14.668  -4.676 -15.370  1.00  0.00     0.065 A 
HETATM   17  C   UNL     1      13.459  -5.364 -15.188  1.00  0.00     0.032 A 
HETATM   18  C   UNL     1      14.995  -3.645 -14.471  1.00  0.00     0.061 A 
HETATM   19  C   UNL     1      12.652  -5.108 -14.072  1.00  0.00     0.002 A 
HETATM   20  C   UNL     1      13.003  -4.116 -13.165  1.00  0.00     0.002 A 
HETATM   21  C   UNL     1      14.153  -3.365 -13.387  1.00  0.00     0.032 A 
HETATM   22  N   UNL     1      16.208  -2.951 -14.499  1.00  0.00    -0.336 N 
HETATM   23  C   UNL     1      17.104  -3.293 -15.377  1.00  0.00     0.180 C 
HETATM   24  HN  UNL     1      16.388  -2.191 -13.843  1.00  0.00     0.168 HD
HETATM   25  C   UNL     1      16.782  -4.269 -16.536  1.00  0.00     0.293 C 
HETATM   26  O   UNL     1      17.490  -4.315 -17.539  1.00  0.00    -0.264 OA
BRANCH  23  27
HETATM   27  N   UNL     1      18.401  -2.768 -15.242  1.00  0.00    -0.295 N 
HETATM   28  C   UNL     1      19.285  -3.342 -14.342  1.00  0.00     0.221 C 
HETATM   29  O   UNL     1      18.972  -4.280 -13.598  1.00  0.00    -0.273 OA
HETATM   30  C   UNL     1      20.672  -2.741 -14.173  1.00  0.00     0.117 C 
BRANCH  27  31
HETATM   31  C   UNL     1      18.637  -1.432 -15.800  1.00  0.00     0.172 C 
BRANCH  31  32
HETATM   32  C   UNL     1      18.914  -1.407 -17.294  1.00  0.00    -0.040 A 
HETATM   33  C   UNL     1      20.063  -1.970 -17.875  1.00  0.00     0.012 A 
HETATM   34  C   UNL     1      20.200  -2.026 -19.265  1.00  0.00     0.043 A 
HETATM   35  C   UNL     1      19.197  -1.517 -20.078  1.00  0.00     0.116 A 
HETATM   36  C   UNL     1      18.071  -0.919 -19.530  1.00  0.00     0.043 A 
HETATM   37  F   UNL     1      19.310  -1.616 -21.409  1.00  0.00    -0.206 F 
HETATM   38  C   UNL     1      17.933  -0.857 -18.142  1.00  0.00     0.012 A 
ENDBRANCH  31  32
ENDBRANCH  27  31
ENDBRANCH  23  27
ENDBRANCH  14  15
ENDBRANCH  11  14
ENDBRANCH   6  10
TORSDOF 6
ENDMDL
MODEL 6
REMARK VINA RESULT:      -7.7      2.541      3.470
REMARK  6 active torsions:
REMARK  status: ('A' for Active; 'I' for Inactive)
REMARK    1  A    between atoms: C_6  and  N_10 
REMARK       I    between atoms: N_10  and  C_11 
REMARK    2  A    between atoms: C_11  and  C_13 
REMARK    3  A    between atoms: C_13  and  N_14 
REMARK    4  A    between atoms: C_23  and  N_26 
REMARK    5  A    between atoms: N_26  and  C_27 
REMARK       I    between atoms: N_26  and  C_35 
REMARK    6  A    between atoms: C_27  and  C_28 
ROOT
HETATM    1  C   UNL     1       9.839  -4.652 -20.918  1.00  0.00     0.048 C 
HETATM    2  C   UNL     1      10.786  -3.877 -20.052  1.00  0.00    -0.061 A 
HETATM    3  C   UNL     1      10.793  -2.479 -20.037  1.00  0.00     0.015 A 
HETATM    4  C   UNL     1      11.689  -1.757 -19.223  1.00  0.00    -0.034 A 
HETATM    5  C   UNL     1      11.702  -0.256 -19.357  1.00  0.00     0.050 C 
HETATM    6  C   UNL     1      12.588  -2.453 -18.383  1.00  0.00     0.046 A 
HETATM    7  C   UNL     1      12.608  -3.865 -18.408  1.00  0.00    -0.034 A 
HETATM    8  C   UNL     1      13.482  -4.725 -17.536  1.00  0.00     0.050 C 
HETATM    9  C   UNL     1      11.692  -4.551 -19.233  1.00  0.00     0.015 A 
ENDROOT
BRANCH   6  10
HETATM   10  N   UNL     1      13.531  -1.754 -17.587  1.00  0.00    -0.325 N 
HETATM   11  C   UNL     1      13.183  -1.061 -16.434  1.00  0.00     0.240 C 
HETATM   12  O   UNL     1      12.043  -0.964 -15.979  1.00  0.00    -0.271 OA
HETATM   13  HN  UNL     1      14.493  -2.084 -17.610  1.00  0.00     0.169 HD
BRANCH  11  14
HETATM   14  C   UNL     1      14.377  -0.531 -15.630  1.00  0.00     0.235 C 
BRANCH  14  15
HETATM   15  N   UNL     1      15.574  -1.369 -15.609  1.00  0.00    -0.300 N 
HETATM   16  C   UNL     1      15.627  -2.579 -14.853  1.00  0.00     0.065 A 
HETATM   17  C   UNL     1      14.598  -2.985 -13.989  1.00  0.00     0.032 A 
HETATM   18  C   UNL     1      16.743  -3.421 -15.007  1.00  0.00     0.061 A 
HETATM   19  C   UNL     1      14.628  -4.248 -13.386  1.00  0.00     0.002 A 
HETATM   20  C   UNL     1      15.716  -5.091 -13.576  1.00  0.00     0.002 A 
HETATM   21  C   UNL     1      16.784  -4.660 -14.356  1.00  0.00     0.032 A 
HETATM   22  N   UNL     1      17.785  -3.165 -15.903  1.00  0.00    -0.336 N 
HETATM   23  C   UNL     1      17.711  -2.114 -16.665  1.00  0.00     0.180 C 
HETATM   24  HN  UNL     1      18.589  -3.791 -15.959  1.00  0.00     0.168 HD
HETATM   25  C   UNL     1      16.638  -1.019 -16.445  1.00  0.00     0.293 C 
HETATM   26  O   UNL     1      16.780   0.109 -16.912  1.00  0.00    -0.264 OA
BRANCH  23  27
HETATM   27  N   UNL     1      18.627  -1.996 -17.725  1.00  0.00    -0.295 N 
HETATM   28  C   UNL     1      19.971  -1.800 -17.453  1.00  0.00     0.221 C 
HETATM   29  O   UNL     1      20.412  -1.669 -16.305  1.00  0.00    -0.273 OA
HETATM   30  C   UNL     1      20.949  -1.632 -18.607  1.00  0.00     0.117 C 
BRANCH  27  31
HETATM   31  C   UNL     1      18.069  -1.737 -19.057  1.00  0.00     0.172 C 
BRANCH  31  32
HETATM   32  C   UNL     1      17.274  -2.890 -19.648  1.00  0.00    -0.040 A 
HETATM   33  C   UNL     1      17.626  -4.239 -19.475  1.00  0.00     0.012 A 
HETATM   34  C   UNL     1      16.786  -5.256 -19.937  1.00  0.00     0.043 A 
HETATM   35  C   UNL     1      15.597  -4.932 -20.577  1.00  0.00     0.116 A 
HETATM   36  C   UNL     1      15.246  -3.608 -20.798  1.00  0.00     0.043 A 
HETATM   37  F   UNL     1      14.773  -5.909 -20.976  1.00  0.00    -0.206 F 
HETATM   38  C   UNL     1      16.086  -2.589 -20.342  1.00  0.00     0.012 A 
ENDBRANCH  31  32
ENDBRANCH  27  31
ENDBRANCH  23  27
ENDBRANCH  14  15
ENDBRANCH  11  14
ENDBRANCH   6  10
TORSDOF 6
ENDMDL
MODEL 7
REMARK VINA RESULT:      -7.6      4.468      6.745
REMARK  6 active torsions:
REMARK  status: ('A' for Active; 'I' for Inactive)
REMARK    1  A    between atoms: C_6  and  N_10 
REMARK       I    between atoms: N_10  and  C_11 
REMARK    2  A    between atoms: C_11  and  C_13 
REMARK    3  A    between atoms: C_13  and  N_14 
REMARK    4  A    between atoms: C_23  and  N_26 
REMARK    5  A    between atoms: N_26  and  C_27 
REMARK       I    between atoms: N_26  and  C_35 
REMARK    6  A    between atoms: C_27  and  C_28 
ROOT
HETATM    1  C   UNL     1      10.901  -3.029 -23.090  1.00  0.00     0.048 C 
HETATM    2  C   UNL     1      11.860  -3.202 -21.950  1.00  0.00    -0.061 A 
HETATM    3  C   UNL     1      11.617  -2.640 -20.694  1.00  0.00     0.015 A 
HETATM    4  C   UNL     1      12.524  -2.803 -19.628  1.00  0.00    -0.034 A 
HETATM    5  C   UNL     1      12.237  -2.067 -18.344  1.00  0.00     0.050 C 
HETATM    6  C   UNL     1      13.697  -3.569 -19.817  1.00  0.00     0.046 A 
HETATM    7  C   UNL     1      13.966  -4.122 -21.089  1.00  0.00    -0.034 A 
HETATM    8  C   UNL     1      15.151  -4.991 -21.413  1.00  0.00     0.050 C 
HETATM    9  C   UNL     1      13.030  -3.939 -22.129  1.00  0.00     0.015 A 
ENDROOT
BRANCH   6  10
HETATM   10  N   UNL     1      14.650  -3.714 -18.777  1.00  0.00    -0.325 N 
HETATM   11  C   UNL     1      15.669  -2.798 -18.549  1.00  0.00     0.240 C 
HETATM   12  O   UNL     1      15.870  -1.779 -19.211  1.00  0.00    -0.271 OA
HETATM   13  HN  UNL     1      14.363  -4.244 -17.956  1.00  0.00     0.169 HD
BRANCH  11  14
HETATM   14  C   UNL     1      16.473  -3.052 -17.268  1.00  0.00     0.235 C 
BRANCH  14  15
HETATM   15  N   UNL     1      16.170  -4.282 -16.540  1.00  0.00    -0.300 N 
HETATM   16  C   UNL     1      15.162  -4.325 -15.530  1.00  0.00     0.065 A 
HETATM   17  C   UNL     1      14.482  -3.182 -15.081  1.00  0.00     0.032 A 
HETATM   18  C   UNL     1      14.807  -5.573 -14.986  1.00  0.00     0.061 A 
HETATM   19  C   UNL     1      13.400  -3.295 -14.200  1.00  0.00     0.002 A 
HETATM   20  C   UNL     1      13.028  -4.537 -13.699  1.00  0.00     0.002 A 
HETATM   21  C   UNL     1      13.755  -5.665 -14.066  1.00  0.00     0.032 A 
HETATM   22  N   UNL     1      15.351  -6.786 -15.419  1.00  0.00    -0.336 N 
HETATM   23  C   UNL     1      16.204  -6.775 -16.399  1.00  0.00     0.180 C 
HETATM   24  HN  UNL     1      15.082  -7.664 -14.974  1.00  0.00     0.168 HD
HETATM   25  C   UNL     1      16.816  -5.457 -16.936  1.00  0.00     0.293 C 
HETATM   26  O   UNL     1      17.854  -5.463 -17.592  1.00  0.00    -0.264 OA
BRANCH  23  27
HETATM   27  N   UNL     1      16.556  -8.002 -16.988  1.00  0.00    -0.295 N 
HETATM   28  C   UNL     1      17.427  -8.856 -16.330  1.00  0.00     0.221 C 
HETATM   29  O   UNL     1      17.964  -8.569 -15.253  1.00  0.00    -0.273 OA
HETATM   30  C   UNL     1      17.834 -10.163 -16.994  1.00  0.00     0.117 C 
BRANCH  27  31
HETATM   31  C   UNL     1      16.262  -8.161 -18.417  1.00  0.00     0.172 C 
BRANCH  31  32
HETATM   32  C   UNL     1      14.835  -8.580 -18.729  1.00  0.00    -0.040 A 
HETATM   33  C   UNL     1      14.328  -9.861 -18.451  1.00  0.00     0.012 A 
HETATM   34  C   UNL     1      12.973 -10.146 -18.646  1.00  0.00     0.043 A 
HETATM   35  C   UNL     1      12.123  -9.158 -19.123  1.00  0.00     0.116 A 
HETATM   36  C   UNL     1      12.604  -7.897 -19.444  1.00  0.00     0.043 A 
HETATM   37  F   UNL     1      10.817  -9.421 -19.263  1.00  0.00    -0.206 F 
HETATM   38  C   UNL     1      13.958  -7.611 -19.255  1.00  0.00     0.012 A 
ENDBRANCH  31  32
ENDBRANCH  27  31
ENDBRANCH  23  27
ENDBRANCH  14  15
ENDBRANCH  11  14
ENDBRANCH   6  10
TORSDOF 6
ENDMDL
MODEL 8
REMARK VINA RESULT:      -7.6      3.868      5.485
REMARK  6 active torsions:
REMARK  status: ('A' for Active; 'I' for Inactive)
REMARK    1  A    between atoms: C_6  and  N_10 
REMARK       I    between atoms: N_10  and  C_11 
REMARK    2  A    between atoms: C_11  and  C_13 
REMARK    3  A    between atoms: C_13  and  N_14 
REMARK    4  A    between atoms: C_23  and  N_26 
REMARK    5  A    between atoms: N_26  and  C_27 
REMARK       I    between atoms: N_26  and  C_35 
REMARK    6  A    between atoms: C_27  and  C_28 
ROOT
HETATM    1  C   UNL     1      14.330  -5.767 -26.685  1.00  0.00     0.048 C 
HETATM    2  C   UNL     1      13.867  -5.472 -25.290  1.00  0.00    -0.061 A 
HETATM    3  C   UNL     1      12.879  -4.519 -25.029  1.00  0.00     0.015 A 
HETATM    4  C   UNL     1      12.452  -4.244 -23.714  1.00  0.00    -0.034 A 
HETATM    5  C   UNL     1      11.465  -3.121 -23.519  1.00  0.00     0.050 C 
HETATM    6  C   UNL     1      13.013  -4.958 -22.631  1.00  0.00     0.046 A 
HETATM    7  C   UNL     1      14.031  -5.906 -22.880  1.00  0.00    -0.034 A 
HETATM    8  C   UNL     1      14.680  -6.763 -21.826  1.00  0.00     0.050 C 
HETATM    9  C   UNL     1      14.427  -6.156 -24.210  1.00  0.00     0.015 A 
ENDROOT
BRANCH   6  10
HETATM   10  N   UNL     1      12.636  -4.671 -21.295  1.00  0.00    -0.325 N 
HETATM   11  C   UNL     1      11.492  -5.192 -20.702  1.00  0.00     0.240 C 
HETATM   12  O   UNL     1      10.684  -5.941 -21.252  1.00  0.00    -0.271 OA
HETATM   13  HN  UNL     1      13.381  -4.431 -20.644  1.00  0.00     0.169 HD
BRANCH  11  14
HETATM   14  C   UNL     1      11.369  -4.901 -19.201  1.00  0.00     0.235 C 
BRANCH  14  15
HETATM   15  N   UNL     1      12.449  -4.124 -18.596  1.00  0.00    -0.300 N 
HETATM   16  C   UNL     1      12.424  -2.697 -18.577  1.00  0.00     0.065 A 
HETATM   17  C   UNL     1      11.441  -1.942 -19.234  1.00  0.00     0.032 A 
HETATM   18  C   UNL     1      13.407  -2.017 -17.835  1.00  0.00     0.061 A 
HETATM   19  C   UNL     1      11.372  -0.554 -19.062  1.00  0.00     0.002 A 
HETATM   20  C   UNL     1      12.323   0.106 -18.294  1.00  0.00     0.002 A 
HETATM   21  C   UNL     1      13.356  -0.622 -17.714  1.00  0.00     0.032 A 
HETATM   22  N   UNL     1      14.381  -2.663 -17.069  1.00  0.00    -0.336 N 
HETATM   23  C   UNL     1      14.365  -3.961 -17.002  1.00  0.00     0.180 C 
HETATM   24  HN  UNL     1      15.091  -2.127 -16.571  1.00  0.00     0.168 HD
HETATM   25  C   UNL     1      13.463  -4.816 -17.927  1.00  0.00     0.293 C 
HETATM   26  O   UNL     1      13.697  -6.007 -18.114  1.00  0.00    -0.264 OA
BRANCH  23  27
HETATM   27  N   UNL     1      15.181  -4.588 -16.044  1.00  0.00    -0.295 N 
HETATM   28  C   UNL     1      14.717  -4.753 -14.749  1.00  0.00     0.221 C 
HETATM   29  O   UNL     1      13.621  -4.325 -14.367  1.00  0.00    -0.273 OA
HETATM   30  C   UNL     1      15.623  -5.395 -13.708  1.00  0.00     0.117 C 
BRANCH  27  31
HETATM   31  C   UNL     1      16.605  -4.719 -16.370  1.00  0.00     0.172 C 
BRANCH  31  32
HETATM   32  C   UNL     1      16.929  -5.811 -17.377  1.00  0.00    -0.040 A 
HETATM   33  C   UNL     1      16.665  -7.172 -17.151  1.00  0.00     0.012 A 
HETATM   34  C   UNL     1      16.869  -8.112 -18.165  1.00  0.00     0.043 A 
HETATM   35  C   UNL     1      17.342  -7.700 -19.403  1.00  0.00     0.116 A 
HETATM   36  C   UNL     1      17.650  -6.368 -19.640  1.00  0.00     0.043 A 
HETATM   37  F   UNL     1      17.492  -8.597 -20.386  1.00  0.00    -0.206 F 
HETATM   38  C   UNL     1      17.451  -5.427 -18.628  1.00  0.00     0.012 A 
ENDBRANCH  31  32
ENDBRANCH  27  31
ENDBRANCH  23  27
ENDBRANCH  14  15
ENDBRANCH  11  14
ENDBRANCH   6  10
TORSDOF 6
ENDMDL
MODEL 9
REMARK VINA RESULT:      -7.6      3.474      6.145
REMARK  6 active torsions:
REMARK  status: ('A' for Active; 'I' for Inactive)
REMARK    1  A    between atoms: C_6  and  N_10 
REMARK       I    between atoms: N_10  and  C_11 
REMARK    2  A    between atoms: C_11  and  C_13 
REMARK    3  A    between atoms: C_13  and  N_14 
REMARK    4  A    between atoms: C_23  and  N_26 
REMARK    5  A    between atoms: N_26  and  C_27 
REMARK       I    between atoms: N_26  and  C_35 
REMARK    6  A    between atoms: C_27  and  C_28 
ROOT
HETATM    1  C   UNL     1      13.012  -4.502 -25.009  1.00  0.00     0.048 C 
HETATM    2  C   UNL     1      13.637  -4.960 -23.725  1.00  0.00    -0.061 A 
HETATM    3  C   UNL     1      13.672  -6.310 -23.366  1.00  0.00     0.015 A 
HETATM    4  C   UNL     1      14.257  -6.734 -22.156  1.00  0.00    -0.034 A 
HETATM    5  C   UNL     1      14.147  -8.194 -21.798  1.00  0.00     0.050 C 
HETATM    6  C   UNL     1      14.843  -5.782 -21.291  1.00  0.00     0.046 A 
HETATM    7  C   UNL     1      14.793  -4.412 -21.631  1.00  0.00    -0.034 A 
HETATM    8  C   UNL     1      15.414  -3.304 -20.824  1.00  0.00     0.050 C 
HETATM    9  C   UNL     1      14.202  -4.029 -22.854  1.00  0.00     0.015 A 
ENDROOT
BRANCH   6  10
HETATM   10  N   UNL     1      15.400  -6.173 -20.046  1.00  0.00    -0.325 N 
HETATM   11  C   UNL     1      16.692  -6.669 -19.915  1.00  0.00     0.240 C 
HETATM   12  O   UNL     1      17.488  -6.832 -20.841  1.00  0.00    -0.271 OA
HETATM   13  HN  UNL     1      15.030  -5.723 -19.211  1.00  0.00     0.169 HD
BRANCH  11  14
HETATM   14  C   UNL     1      17.152  -6.859 -18.465  1.00  0.00     0.235 C 
BRANCH  14  15
HETATM   15  N   UNL     1      16.827  -5.784 -17.530  1.00  0.00    -0.300 N 
HETATM   16  C   UNL     1      17.467  -4.510 -17.603  1.00  0.00     0.065 A 
HETATM   17  C   UNL     1      18.526  -4.237 -18.483  1.00  0.00     0.032 A 
HETATM   18  C   UNL     1      16.992  -3.470 -16.784  1.00  0.00     0.061 A 
HETATM   19  C   UNL     1      19.020  -2.934 -18.625  1.00  0.00     0.002 A 
HETATM   20  C   UNL     1      18.516  -1.904 -17.841  1.00  0.00     0.002 A 
HETATM   21  C   UNL     1      17.531  -2.182 -16.899  1.00  0.00     0.032 A 
HETATM   22  N   UNL     1      15.889  -3.599 -15.935  1.00  0.00    -0.336 N 
HETATM   23  C   UNL     1      15.238  -4.724 -15.921  1.00  0.00     0.180 C 
HETATM   24  HN  UNL     1      15.599  -2.824 -15.337  1.00  0.00     0.168 HD
HETATM   25  C   UNL     1      15.783  -5.992 -16.624  1.00  0.00     0.293 C 
HETATM   26  O   UNL     1      15.370  -7.109 -16.323  1.00  0.00    -0.264 OA
BRANCH  23  27
HETATM   27  N   UNL     1      13.998  -4.766 -15.261  1.00  0.00    -0.295 N 
HETATM   28  C   UNL     1      13.896  -4.301 -13.959  1.00  0.00     0.221 C 
HETATM   29  O   UNL     1      14.868  -3.888 -13.315  1.00  0.00    -0.273 OA
HETATM   30  C   UNL     1      12.559  -4.389 -13.239  1.00  0.00     0.117 C 
BRANCH  27  31
HETATM   31  C   UNL     1      12.960  -5.617 -15.853  1.00  0.00     0.172 C 
BRANCH  31  32
HETATM   32  C   UNL     1      12.594  -5.268 -17.286  1.00  0.00    -0.040 A 
HETATM   33  C   UNL     1      12.095  -6.206 -18.206  1.00  0.00     0.012 A 
HETATM   34  C   UNL     1      11.659  -5.798 -19.470  1.00  0.00     0.043 A 
HETATM   35  C   UNL     1      11.724  -4.457 -19.822  1.00  0.00     0.116 A 
HETATM   36  C   UNL     1      12.250  -3.516 -18.948  1.00  0.00     0.043 A 
HETATM   37  F   UNL     1      11.261  -4.064 -21.016  1.00  0.00    -0.206 F 
HETATM   38  C   UNL     1      12.691  -3.921 -17.687  1.00  0.00     0.012 A 
ENDBRANCH  31  32
ENDBRANCH  27  31
ENDBRANCH  23  27
ENDBRANCH  14  15
ENDBRANCH  11  14
ENDBRANCH   6  10
TORSDOF 6
ENDMDL
