MODEL 1
REMARK VINA RESULT:      -7.2      0.000      0.000
REMARK  5 active torsions:
REMARK  status: ('A' for Active; 'I' for Inactive)
REMARK    1  A    between atoms: C_2  and  C_3 
REMARK    2  A    between atoms: C_6  and  C_19 
REMARK    3  A    between atoms: C_8  and  S_9 
REMARK    4  A    between atoms: S_9  and  N_12 
REMARK    5  A    between atoms: N_28  and  C_29 
ROOT
HETATM    1  C   UNL     1      13.010 -10.478 -18.266  1.00  0.00     0.010 C 
HETATM    2  C   UNL     1      14.454 -10.422 -18.704  1.00  0.00     0.035 C 
ENDROOT
BRANCH   2   3
HETATM    3  C   UNL     1      14.723  -9.878 -20.067  1.00  0.00    -0.035 A 
HETATM    4  C   UNL     1      13.905 -10.351 -21.108  1.00  0.00     0.009 A 
HETATM    5  C   UNL     1      13.982  -9.818 -22.388  1.00  0.00     0.014 A 
HETATM    6  C   UNL     1      14.853  -8.763 -22.679  1.00  0.00    -0.006 A 
HETATM    7  C   UNL     1      15.654  -8.264 -21.617  1.00  0.00     0.039 A 
HETATM    8  C   UNL     1      15.637  -8.846 -20.320  1.00  0.00     0.086 A 
BRANCH   6   9
HETATM    9  C   UNL     1      14.842  -8.329 -24.136  1.00  0.00     0.065 A 
HETATM   10  C   UNL     1      14.417  -6.945 -24.532  1.00  0.00    -0.017 A 
HETATM   11  C   UNL     1      13.950  -5.937 -23.523  1.00  0.00     0.042 C 
HETATM   12  C   UNL     1      14.511  -6.626 -25.838  1.00  0.00     0.020 A 
HETATM   13  C   UNL     1      13.834  -4.507 -24.039  1.00  0.00     0.005 C 
HETATM   14  C   UNL     1      13.197  -4.511 -25.418  1.00  0.00     0.005 C 
HETATM   15  C   UNL     1      14.078  -5.293 -26.392  1.00  0.00     0.045 C 
HETATM   16  C   UNL     1      15.073  -7.581 -26.836  1.00  0.00     0.268 A 
HETATM   17  O   UNL     1      15.222  -7.234 -28.008  1.00  0.00    -0.266 OA
HETATM   18  N   UNL     1      15.403  -8.833 -26.344  1.00  0.00    -0.257 N 
HETATM   19  N   UNL     1      15.291  -9.191 -25.017  1.00  0.00    -0.294 N 
HETATM   20  HN  UNL     1      15.559 -10.129 -24.719  1.00  0.00     0.187 HD
BRANCH  18  21
HETATM   21  C   UNL     1      16.003  -9.818 -27.245  1.00  0.00     0.148 C 
HETATM   22  C   UNL     1      15.664 -11.252 -26.862  1.00  0.00     0.028 C 
ENDBRANCH  18  21
ENDBRANCH   6   9
BRANCH   8  23
HETATM   23  S   UNL     1      17.021  -8.479 -19.160  1.00  0.00     0.261 S 
HETATM   24  O   UNL     1      17.424  -9.740 -18.570  1.00  0.00    -0.200 OA
HETATM   25  O   UNL     1      17.975  -7.713 -19.944  1.00  0.00    -0.200 OA
BRANCH  23  26
HETATM   26  N   UNL     1      16.484  -7.448 -17.915  1.00  0.00    -0.302 N 
HETATM   27  C   UNL     1      15.791  -6.218 -18.285  1.00  0.00     0.136 C 
HETATM   28  C   UNL     1      14.308  -6.470 -18.118  1.00  0.00     0.021 C 
HETATM   29  C   UNL     1      13.939  -6.905 -16.700  1.00  0.00     0.004 C 
HETATM   30  C   UNL     1      14.881  -7.909 -16.033  1.00  0.00     0.026 C 
HETATM   31  C   UNL     1      16.356  -7.835 -16.475  1.00  0.00     0.092 C 
HETATM   32  C   UNL     1      17.058  -6.818 -15.554  1.00  0.00     0.033 C 
ENDBRANCH  23  26
ENDBRANCH   8  23
ENDBRANCH   2   3
TORSDOF 5
ENDMDL
MODEL 2
REMARK VINA RESULT:      -7.2      5.806      9.716
REMARK  5 active torsions:
REMARK  status: ('A' for Active; 'I' for Inactive)
REMARK    1  A    between atoms: C_2  and  C_3 
REMARK    2  A    between atoms: C_6  and  C_19 
REMARK    3  A    between atoms: C_8  and  S_9 
REMARK    4  A    between atoms: S_9  and  N_12 
REMARK    5  A    between atoms: N_28  and  C_29 
ROOT
HETATM    1  C   UNL     1      14.271  -5.344 -23.326  1.00  0.00     0.010 C 
HETATM    2  C   UNL     1      13.254  -4.258 -23.069  1.00  0.00     0.035 C 
ENDROOT
BRANCH   2   3
HETATM    3  C   UNL     1      13.325  -3.568 -21.748  1.00  0.00    -0.035 A 
HETATM    4  C   UNL     1      14.608  -3.344 -21.221  1.00  0.00     0.009 A 
HETATM    5  C   UNL     1      14.796  -2.598 -20.065  1.00  0.00     0.014 A 
HETATM    6  C   UNL     1      13.715  -2.009 -19.402  1.00  0.00    -0.006 A 
HETATM    7  C   UNL     1      12.422  -2.207 -19.956  1.00  0.00     0.039 A 
HETATM    8  C   UNL     1      12.207  -3.027 -21.098  1.00  0.00     0.086 A 
BRANCH   6   9
HETATM    9  C   UNL     1      14.092  -1.263 -18.132  1.00  0.00     0.065 A 
HETATM   10  C   UNL     1      14.087  -1.949 -16.797  1.00  0.00    -0.017 A 
HETATM   11  C   UNL     1      13.678  -3.384 -16.642  1.00  0.00     0.042 C 
HETATM   12  C   UNL     1      14.507  -1.229 -15.738  1.00  0.00     0.020 A 
HETATM   13  C   UNL     1      14.002  -4.008 -15.289  1.00  0.00     0.005 C 
HETATM   14  C   UNL     1      13.665  -3.027 -14.179  1.00  0.00     0.005 C 
HETATM   15  C   UNL     1      14.513  -1.765 -14.329  1.00  0.00     0.045 C 
HETATM   16  C   UNL     1      15.016   0.165 -15.894  1.00  0.00     0.268 A 
HETATM   17  O   UNL     1      15.469   0.769 -14.922  1.00  0.00    -0.266 OA
HETATM   18  N   UNL     1      14.943   0.687 -17.175  1.00  0.00    -0.257 N 
HETATM   19  N   UNL     1      14.493  -0.021 -18.269  1.00  0.00    -0.294 N 
HETATM   20  HN  UNL     1      14.471   0.421 -19.187  1.00  0.00     0.187 HD
BRANCH  18  21
HETATM   21  C   UNL     1      15.462   2.032 -17.427  1.00  0.00     0.148 C 
HETATM   22  C   UNL     1      14.968   2.618 -18.743  1.00  0.00     0.028 C 
ENDBRANCH  18  21
ENDBRANCH   6   9
BRANCH   8  23
HETATM   23  S   UNL     1      10.501  -3.624 -21.458  1.00  0.00     0.261 S 
HETATM   24  O   UNL     1       9.606  -2.897 -20.578  1.00  0.00    -0.200 OA
HETATM   25  O   UNL     1      10.354  -3.500 -22.897  1.00  0.00    -0.200 OA
BRANCH  23  26
HETATM   26  N   UNL     1      10.374  -5.285 -21.103  1.00  0.00    -0.302 N 
HETATM   27  C   UNL     1       9.705  -6.150 -22.069  1.00  0.00     0.136 C 
HETATM   28  C   UNL     1      10.783  -6.851 -22.868  1.00  0.00     0.021 C 
HETATM   29  C   UNL     1      11.746  -7.649 -21.989  1.00  0.00     0.004 C 
HETATM   30  C   UNL     1      12.188  -6.977 -20.687  1.00  0.00     0.026 C 
HETATM   31  C   UNL     1      11.171  -6.004 -20.060  1.00  0.00     0.092 C 
HETATM   32  C   UNL     1      10.263  -6.830 -19.128  1.00  0.00     0.033 C 
ENDBRANCH  23  26
ENDBRANCH   8  23
ENDBRANCH   2   3
TORSDOF 5
ENDMDL
MODEL 3
REMARK VINA RESULT:      -7.2      5.865      9.762
REMARK  5 active torsions:
REMARK  status: ('A' for Active; 'I' for Inactive)
REMARK    1  A    between atoms: C_2  and  C_3 
REMARK    2  A    between atoms: C_6  and  C_19 
REMARK    3  A    between atoms: C_8  and  S_9 
REMARK    4  A    between atoms: S_9  and  N_12 
REMARK    5  A    between atoms: N_28  and  C_29 
ROOT
HETATM    1  C   UNL     1      14.142  -5.707 -23.104  1.00  0.00     0.010 C 
HETATM    2  C   UNL     1      13.655  -4.278 -23.085  1.00  0.00     0.035 C 
ENDROOT
BRANCH   2   3
HETATM    3  C   UNL     1      13.662  -3.582 -21.765  1.00  0.00    -0.035 A 
HETATM    4  C   UNL     1      14.919  -3.339 -21.185  1.00  0.00     0.009 A 
HETATM    5  C   UNL     1      15.048  -2.587 -20.025  1.00  0.00     0.014 A 
HETATM    6  C   UNL     1      13.932  -2.010 -19.411  1.00  0.00    -0.006 A 
HETATM    7  C   UNL     1      12.666  -2.228 -20.018  1.00  0.00     0.039 A 
HETATM    8  C   UNL     1      12.510  -3.054 -21.165  1.00  0.00     0.086 A 
BRANCH   6   9
HETATM    9  C   UNL     1      14.245  -1.255 -18.129  1.00  0.00     0.065 A 
HETATM   10  C   UNL     1      14.170  -1.931 -16.791  1.00  0.00    -0.017 A 
HETATM   11  C   UNL     1      13.750  -3.364 -16.645  1.00  0.00     0.042 C 
HETATM   12  C   UNL     1      14.537  -1.203 -15.717  1.00  0.00     0.020 A 
HETATM   13  C   UNL     1      14.002  -3.978 -15.273  1.00  0.00     0.005 C 
HETATM   14  C   UNL     1      13.612  -2.988 -14.190  1.00  0.00     0.005 C 
HETATM   15  C   UNL     1      14.470  -1.729 -14.306  1.00  0.00     0.045 C 
HETATM   16  C   UNL     1      15.056   0.188 -15.857  1.00  0.00     0.268 A 
HETATM   17  O   UNL     1      15.460   0.799 -14.868  1.00  0.00    -0.266 OA
HETATM   18  N   UNL     1      15.050   0.701 -17.144  1.00  0.00    -0.257 N 
HETATM   19  N   UNL     1      14.655  -0.015 -18.254  1.00  0.00    -0.294 N 
HETATM   20  HN  UNL     1      14.682   0.420 -19.176  1.00  0.00     0.187 HD
BRANCH  18  21
HETATM   21  C   UNL     1      15.585   2.042 -17.380  1.00  0.00     0.148 C 
HETATM   22  C   UNL     1      15.025   2.688 -18.640  1.00  0.00     0.028 C 
ENDBRANCH  18  21
ENDBRANCH   6   9
BRANCH   8  23
HETATM   23  S   UNL     1      10.829  -3.675 -21.593  1.00  0.00     0.261 S 
HETATM   24  O   UNL     1       9.903  -3.067 -20.658  1.00  0.00    -0.200 OA
HETATM   25  O   UNL     1      10.685  -3.422 -23.016  1.00  0.00    -0.200 OA
BRANCH  23  26
HETATM   26  N   UNL     1      10.761  -5.366 -21.397  1.00  0.00    -0.302 N 
HETATM   27  C   UNL     1      11.626  -5.982 -20.395  1.00  0.00     0.136 C 
HETATM   28  C   UNL     1      10.778  -6.246 -19.170  1.00  0.00     0.021 C 
HETATM   29  C   UNL     1       9.566  -7.129 -19.469  1.00  0.00     0.004 C 
HETATM   30  C   UNL     1       8.815  -6.830 -20.768  1.00  0.00     0.026 C 
HETATM   31  C   UNL     1       9.667  -6.248 -21.912  1.00  0.00     0.092 C 
HETATM   32  C   UNL     1      10.234  -7.438 -22.711  1.00  0.00     0.033 C 
ENDBRANCH  23  26
ENDBRANCH   8  23
ENDBRANCH   2   3
TORSDOF 5
ENDMDL
MODEL 4
REMARK VINA RESULT:      -7.0      6.798     10.104
REMARK  5 active torsions:
REMARK  status: ('A' for Active; 'I' for Inactive)
REMARK    1  A    between atoms: C_2  and  C_3 
REMARK    2  A    between atoms: C_6  and  C_19 
REMARK    3  A    between atoms: C_8  and  S_9 
REMARK    4  A    between atoms: S_9  and  N_12 
REMARK    5  A    between atoms: N_28  and  C_29 
ROOT
HETATM    1  C   UNL     1      15.835   3.969 -20.116  1.00  0.00     0.010 C 
HETATM    2  C   UNL     1      16.831   3.191 -19.290  1.00  0.00     0.035 C 
ENDROOT
BRANCH   2   3
HETATM    3  C   UNL     1      16.423   1.822 -18.856  1.00  0.00    -0.035 A 
HETATM    4  C   UNL     1      15.288   1.734 -18.032  1.00  0.00     0.009 A 
HETATM    5  C   UNL     1      14.745   0.506 -17.677  1.00  0.00     0.014 A 
HETATM    6  C   UNL     1      15.288  -0.689 -18.158  1.00  0.00    -0.006 A 
HETATM    7  C   UNL     1      16.414  -0.596 -19.018  1.00  0.00     0.039 A 
HETATM    8  C   UNL     1      17.023   0.650 -19.334  1.00  0.00     0.086 A 
BRANCH   6   9
HETATM    9  C   UNL     1      14.600  -1.941 -17.638  1.00  0.00     0.065 A 
HETATM   10  C   UNL     1      13.571  -2.662 -18.460  1.00  0.00    -0.017 A 
HETATM   11  C   UNL     1      13.145  -2.168 -19.812  1.00  0.00     0.042 C 
HETATM   12  C   UNL     1      13.070  -3.803 -17.949  1.00  0.00     0.020 A 
HETATM   13  C   UNL     1      12.321  -3.153 -20.632  1.00  0.00     0.005 C 
HETATM   14  C   UNL     1      11.292  -3.826 -19.741  1.00  0.00     0.005 C 
HETATM   15  C   UNL     1      11.998  -4.610 -18.636  1.00  0.00     0.045 C 
HETATM   16  C   UNL     1      13.561  -4.362 -16.657  1.00  0.00     0.268 A 
HETATM   17  O   UNL     1      13.144  -5.448 -16.254  1.00  0.00    -0.266 OA
HETATM   18  N   UNL     1      14.493  -3.586 -15.987  1.00  0.00    -0.257 N 
HETATM   19  N   UNL     1      15.001  -2.402 -16.477  1.00  0.00    -0.294 N 
HETATM   20  HN  UNL     1      15.691  -1.882 -15.936  1.00  0.00     0.187 HD
BRANCH  18  21
HETATM   21  C   UNL     1      15.062  -4.079 -14.732  1.00  0.00     0.148 C 
HETATM   22  C   UNL     1      14.292  -3.605 -13.507  1.00  0.00     0.028 C 
ENDBRANCH  18  21
ENDBRANCH   6   9
BRANCH   8  23
HETATM   23  S   UNL     1      18.728   0.656 -20.035  1.00  0.00     0.261 S 
HETATM   24  O   UNL     1      18.687   1.465 -21.237  1.00  0.00    -0.200 OA
HETATM   25  O   UNL     1      19.587   1.048 -18.932  1.00  0.00    -0.200 OA
BRANCH  23  26
HETATM   26  N   UNL     1      19.190  -0.926 -20.465  1.00  0.00    -0.302 N 
HETATM   27  C   UNL     1      19.258  -1.266 -21.884  1.00  0.00     0.136 C 
HETATM   28  C   UNL     1      20.715  -1.200 -22.291  1.00  0.00     0.021 C 
HETATM   29  C   UNL     1      21.603  -2.125 -21.460  1.00  0.00     0.004 C 
HETATM   30  C   UNL     1      21.317  -2.169 -19.957  1.00  0.00     0.026 C 
HETATM   31  C   UNL     1      19.853  -1.907 -19.550  1.00  0.00     0.092 C 
HETATM   32  C   UNL     1      19.126  -3.265 -19.558  1.00  0.00     0.033 C 
ENDBRANCH  23  26
ENDBRANCH   8  23
ENDBRANCH   2   3
TORSDOF 5
ENDMDL
MODEL 5
REMARK VINA RESULT:      -6.9      5.342      8.779
REMARK  5 active torsions:
REMARK  status: ('A' for Active; 'I' for Inactive)
REMARK    1  A    between atoms: C_2  and  C_3 
REMARK    2  A    between atoms: C_6  and  C_19 
REMARK    3  A    between atoms: C_8  and  S_9 
REMARK    4  A    between atoms: S_9  and  N_12 
REMARK    5  A    between atoms: N_28  and  C_29 
ROOT
HETATM    1  C   UNL     1      16.240  -8.076 -20.963  1.00  0.00     0.010 C 
HETATM    2  C   UNL     1      15.782  -6.932 -21.835  1.00  0.00     0.035 C 
ENDROOT
BRANCH   2   3
HETATM    3  C   UNL     1      15.578  -5.614 -21.165  1.00  0.00    -0.035 A 
HETATM    4  C   UNL     1      16.490  -5.274 -20.151  1.00  0.00     0.009 A 
HETATM    5  C   UNL     1      16.472  -4.022 -19.552  1.00  0.00     0.014 A 
HETATM    6  C   UNL     1      15.569  -3.037 -19.964  1.00  0.00    -0.006 A 
HETATM    7  C   UNL     1      14.671  -3.372 -21.013  1.00  0.00     0.039 A 
HETATM    8  C   UNL     1      14.630  -4.672 -21.587  1.00  0.00     0.086 A 
BRANCH   6   9
HETATM    9  C   UNL     1      15.656  -1.740 -19.176  1.00  0.00     0.065 A 
HETATM   10  C   UNL     1      14.961  -1.584 -17.855  1.00  0.00    -0.017 A 
HETATM   11  C   UNL     1      14.121  -2.678 -17.264  1.00  0.00     0.042 C 
HETATM   12  C   UNL     1      15.157  -0.425 -17.194  1.00  0.00     0.020 A 
HETATM   13  C   UNL     1      13.728  -2.477 -15.805  1.00  0.00     0.005 C 
HETATM   14  C   UNL     1      13.314  -1.034 -15.580  1.00  0.00     0.005 C 
HETATM   15  C   UNL     1      14.489  -0.105 -15.881  1.00  0.00     0.045 C 
HETATM   16  C   UNL     1      16.073   0.628 -17.719  1.00  0.00     0.268 A 
HETATM   17  O   UNL     1      16.296   1.640 -17.055  1.00  0.00    -0.266 OA
HETATM   18  N   UNL     1      16.631   0.369 -18.961  1.00  0.00    -0.257 N 
HETATM   19  N   UNL     1      16.425  -0.797 -19.667  1.00  0.00    -0.294 N 
HETATM   20  HN  UNL     1      16.873  -0.927 -20.574  1.00  0.00     0.187 HD
BRANCH  18  21
HETATM   21  C   UNL     1      17.578   1.328 -19.531  1.00  0.00     0.148 C 
HETATM   22  C   UNL     1      16.897   2.404 -20.367  1.00  0.00     0.028 C 
ENDBRANCH  18  21
ENDBRANCH   6   9
BRANCH   8  23
HETATM   23  S   UNL     1      13.151  -5.166 -22.570  1.00  0.00     0.261 S 
HETATM   24  O   UNL     1      13.282  -4.540 -23.871  1.00  0.00    -0.200 OA
HETATM   25  O   UNL     1      13.099  -6.613 -22.468  1.00  0.00    -0.200 OA
BRANCH  23  26
HETATM   26  N   UNL     1      11.733  -4.580 -21.830  1.00  0.00    -0.302 N 
HETATM   27  C   UNL     1      11.263  -5.239 -20.616  1.00  0.00     0.136 C 
HETATM   28  C   UNL     1      11.702  -4.388 -19.443  1.00  0.00     0.021 C 
HETATM   29  C   UNL     1      11.182  -2.953 -19.527  1.00  0.00     0.004 C 
HETATM   30  C   UNL     1      11.235  -2.294 -20.907  1.00  0.00     0.026 C 
HETATM   31  C   UNL     1      11.105  -3.250 -22.109  1.00  0.00     0.092 C 
HETATM   32  C   UNL     1       9.603  -3.392 -22.420  1.00  0.00     0.033 C 
ENDBRANCH  23  26
ENDBRANCH   8  23
ENDBRANCH   2   3
TORSDOF 5
ENDMDL
MODEL 6
REMARK VINA RESULT:      -6.9      4.148      7.669
REMARK  5 active torsions:
REMARK  status: ('A' for Active; 'I' for Inactive)
REMARK    1  A    between atoms: C_2  and  C_3 
REMARK    2  A    between atoms: C_6  and  C_19 
REMARK    3  A    between atoms: C_8  and  S_9 
REMARK    4  A    between atoms: S_9  and  N_12 
REMARK    5  A    between atoms: N_28  and  C_29 
ROOT
HETATM    1  C   UNL     1      19.391  -7.275 -20.509  1.00  0.00     0.010 C 
HETATM    2  C   UNL     1      18.005  -7.757 -20.153  1.00  0.00     0.035 C 
ENDROOT
BRANCH   2   3
HETATM    3  C   UNL     1      17.113  -6.786 -19.454  1.00  0.00    -0.035 A 
HETATM    4  C   UNL     1      17.341  -5.423 -19.710  1.00  0.00     0.009 A 
HETATM    5  C   UNL     1      16.491  -4.442 -19.216  1.00  0.00     0.014 A 
HETATM    6  C   UNL     1      15.353  -4.779 -18.477  1.00  0.00    -0.006 A 
HETATM    7  C   UNL     1      15.106  -6.159 -18.249  1.00  0.00     0.039 A 
HETATM    8  C   UNL     1      16.004  -7.170 -18.688  1.00  0.00     0.086 A 
BRANCH   6   9
HETATM    9  C   UNL     1      14.556  -3.584 -17.978  1.00  0.00     0.065 A 
HETATM   10  C   UNL     1      13.401  -3.036 -18.764  1.00  0.00    -0.017 A 
HETATM   11  C   UNL     1      12.997  -3.612 -20.090  1.00  0.00     0.042 C 
HETATM   12  C   UNL     1      12.708  -2.023 -18.208  1.00  0.00     0.020 A 
HETATM   13  C   UNL     1      11.645  -3.142 -20.616  1.00  0.00     0.005 C 
HETATM   14  C   UNL     1      11.500  -1.648 -20.393  1.00  0.00     0.005 C 
HETATM   15  C   UNL     1      11.554  -1.340 -18.897  1.00  0.00     0.045 C 
HETATM   16  C   UNL     1      13.032  -1.512 -16.845  1.00  0.00     0.268 A 
HETATM   17  O   UNL     1      12.331  -0.641 -16.329  1.00  0.00    -0.266 OA
HETATM   18  N   UNL     1      14.137  -2.086 -16.239  1.00  0.00    -0.257 N 
HETATM   19  N   UNL     1      14.877  -3.105 -16.799  1.00  0.00    -0.294 N 
HETATM   20  HN  UNL     1      15.677  -3.490 -16.296  1.00  0.00     0.187 HD
BRANCH  18  21
HETATM   21  C   UNL     1      14.500  -1.676 -14.882  1.00  0.00     0.148 C 
HETATM   22  C   UNL     1      14.073  -2.686 -13.826  1.00  0.00     0.028 C 
ENDBRANCH  18  21
ENDBRANCH   6   9
BRANCH   8  23
HETATM   23  S   UNL     1      15.878  -8.855 -17.950  1.00  0.00     0.261 S 
HETATM   24  O   UNL     1      17.224  -9.391 -17.893  1.00  0.00    -0.200 OA
HETATM   25  O   UNL     1      15.122  -8.673 -16.724  1.00  0.00    -0.200 OA
BRANCH  23  26
HETATM   26  N   UNL     1      14.938  -9.863 -18.950  1.00  0.00    -0.302 N 
HETATM   27  C   UNL     1      13.517 -10.007 -18.647  1.00  0.00     0.136 C 
HETATM   28  C   UNL     1      12.762  -9.100 -19.596  1.00  0.00     0.021 C 
HETATM   29  C   UNL     1      13.047  -9.413 -21.065  1.00  0.00     0.004 C 
HETATM   30  C   UNL     1      14.504  -9.713 -21.423  1.00  0.00     0.026 C 
HETATM   31  C   UNL     1      15.347 -10.355 -20.303  1.00  0.00     0.092 C 
HETATM   32  C   UNL     1      15.179 -11.882 -20.421  1.00  0.00     0.033 C 
ENDBRANCH  23  26
ENDBRANCH   8  23
ENDBRANCH   2   3
TORSDOF 5
ENDMDL
MODEL 7
REMARK VINA RESULT:      -6.9      3.520      5.392
REMARK  5 active torsions:
REMARK  status: ('A' for Active; 'I' for Inactive)
REMARK    1  A    between atoms: C_2  and  C_3 
REMARK    2  A    between atoms: C_6  and  C_19 
REMARK    3  A    between atoms: C_8  and  S_9 
REMARK    4  A    between atoms: S_9  and  N_12 
REMARK    5  A    between atoms: N_28  and  C_29 
ROOT
HETATM    1  C   UNL     1      19.401  -3.107 -17.017  1.00  0.00     0.010 C 
HETATM    2  C   UNL     1      18.669  -4.427 -17.051  1.00  0.00     0.035 C 
ENDROOT
BRANCH   2   3
HETATM    3  C   UNL     1      17.483  -4.515 -17.953  1.00  0.00    -0.035 A 
HETATM    4  C   UNL     1      17.450  -3.626 -19.041  1.00  0.00     0.009 A 
HETATM    5  C   UNL     1      16.462  -3.708 -20.013  1.00  0.00     0.014 A 
HETATM    6  C   UNL     1      15.484  -4.706 -19.966  1.00  0.00    -0.006 A 
HETATM    7  C   UNL     1      15.540  -5.625 -18.884  1.00  0.00     0.039 A 
HETATM    8  C   UNL     1      16.502  -5.511 -17.844  1.00  0.00     0.086 A 
BRANCH   6   9
HETATM    9  C   UNL     1      14.456  -4.626 -21.083  1.00  0.00     0.065 A 
HETATM   10  C   UNL     1      13.255  -3.732 -20.973  1.00  0.00    -0.017 A 
HETATM   11  C   UNL     1      12.990  -2.904 -19.750  1.00  0.00     0.042 C 
HETATM   12  C   UNL     1      12.438  -3.671 -22.043  1.00  0.00     0.020 A 
HETATM   13  C   UNL     1      11.906  -1.844 -19.907  1.00  0.00     0.005 C 
HETATM   14  C   UNL     1      10.726  -2.426 -20.666  1.00  0.00     0.005 C 
HETATM   15  C   UNL     1      11.171  -2.854 -22.064  1.00  0.00     0.045 C 
HETATM   16  C   UNL     1      12.746  -4.406 -23.303  1.00  0.00     0.268 A 
HETATM   17  O   UNL     1      12.025  -4.268 -24.292  1.00  0.00    -0.266 OA
HETATM   18  N   UNL     1      13.870  -5.215 -23.263  1.00  0.00    -0.257 N 
HETATM   19  N   UNL     1      14.706  -5.314 -22.172  1.00  0.00    -0.294 N 
HETATM   20  HN  UNL     1      15.523  -5.924 -22.210  1.00  0.00     0.187 HD
BRANCH  18  21
HETATM   21  C   UNL     1      14.272  -5.939 -24.470  1.00  0.00     0.148 C 
HETATM   22  C   UNL     1      14.975  -7.254 -24.164  1.00  0.00     0.028 C 
ENDBRANCH  18  21
ENDBRANCH   6   9
BRANCH   8  23
HETATM   23  S   UNL     1      16.216  -6.413 -16.262  1.00  0.00     0.261 S 
HETATM   24  O   UNL     1      15.404  -7.571 -16.578  1.00  0.00    -0.200 OA
HETATM   25  O   UNL     1      17.538  -6.595 -15.689  1.00  0.00    -0.200 OA
BRANCH  23  26
HETATM   26  N   UNL     1      15.352  -5.428 -15.174  1.00  0.00    -0.302 N 
HETATM   27  C   UNL     1      16.077  -4.823 -14.061  1.00  0.00     0.136 C 
HETATM   28  C   UNL     1      16.370  -3.388 -14.443  1.00  0.00     0.021 C 
HETATM   29  C   UNL     1      15.106  -2.594 -14.773  1.00  0.00     0.004 C 
HETATM   30  C   UNL     1      14.049  -3.320 -15.608  1.00  0.00     0.026 C 
HETATM   31  C   UNL     1      13.995  -4.850 -15.430  1.00  0.00     0.092 C 
HETATM   32  C   UNL     1      13.031  -5.141 -14.263  1.00  0.00     0.033 C 
ENDBRANCH  23  26
ENDBRANCH   8  23
ENDBRANCH   2   3
TORSDOF 5
ENDMDL
MODEL 8
REMARK VINA RESULT:      -6.9      4.983      7.290
REMARK  5 active torsions:
REMARK  status: ('A' for Active; 'I' for Inactive)
REMARK    1  A    between atoms: C_2  and  C_3 
REMARK    2  A    between atoms: C_6  and  C_19 
REMARK    3  A    between atoms: C_8  and  S_9 
REMARK    4  A    between atoms: S_9  and  N_12 
REMARK    5  A    between atoms: N_28  and  C_29 
ROOT
HETATM    1  C   UNL     1      15.206  -0.106 -15.265  1.00  0.00     0.010 C 
HETATM    2  C   UNL     1      14.024  -1.012 -15.018  1.00  0.00     0.035 C 
ENDROOT
BRANCH   2   3
HETATM    3  C   UNL     1      13.384  -1.627 -16.219  1.00  0.00    -0.035 A 
HETATM    4  C   UNL     1      12.455  -0.835 -16.914  1.00  0.00     0.009 A 
HETATM    5  C   UNL     1      11.899  -1.257 -18.114  1.00  0.00     0.014 A 
HETATM    6  C   UNL     1      12.273  -2.473 -18.695  1.00  0.00    -0.006 A 
HETATM    7  C   UNL     1      13.238  -3.256 -18.008  1.00  0.00     0.039 A 
HETATM    8  C   UNL     1      13.764  -2.870 -16.744  1.00  0.00     0.086 A 
BRANCH   6   9
HETATM    9  C   UNL     1      11.538  -2.801 -19.985  1.00  0.00     0.065 A 
HETATM   10  C   UNL     1      12.260  -3.387 -21.164  1.00  0.00    -0.017 A 
HETATM   11  C   UNL     1      13.738  -3.643 -21.144  1.00  0.00     0.042 C 
HETATM   12  C   UNL     1      11.513  -3.715 -22.236  1.00  0.00     0.020 A 
HETATM   13  C   UNL     1      14.263  -4.499 -22.291  1.00  0.00     0.005 C 
HETATM   14  C   UNL     1      13.614  -4.064 -23.593  1.00  0.00     0.005 C 
HETATM   15  C   UNL     1      12.102  -4.268 -23.510  1.00  0.00     0.045 C 
HETATM   16  C   UNL     1      10.029  -3.564 -22.231  1.00  0.00     0.268 A 
HETATM   17  O   UNL     1       9.365  -3.947 -23.194  1.00  0.00    -0.266 OA
HETATM   18  N   UNL     1       9.492  -2.987 -21.091  1.00  0.00    -0.257 N 
HETATM   19  N   UNL     1      10.239  -2.620 -19.992  1.00  0.00    -0.294 N 
HETATM   20  HN  UNL     1       9.780  -2.207 -19.180  1.00  0.00     0.187 HD
BRANCH  18  21
HETATM   21  C   UNL     1       8.040  -2.843 -20.982  1.00  0.00     0.148 C 
HETATM   22  C   UNL     1       7.330  -4.170 -20.755  1.00  0.00     0.028 C 
ENDBRANCH  18  21
ENDBRANCH   6   9
BRANCH   8  23
HETATM   23  S   UNL     1      14.613  -4.136 -15.708  1.00  0.00     0.261 S 
HETATM   24  O   UNL     1      15.887  -3.569 -15.311  1.00  0.00    -0.200 OA
HETATM   25  O   UNL     1      13.642  -4.506 -14.695  1.00  0.00    -0.200 OA
BRANCH  23  26
HETATM   26  N   UNL     1      14.910  -5.540 -16.626  1.00  0.00    -0.302 N 
HETATM   27  C   UNL     1      16.269  -5.782 -17.101  1.00  0.00     0.136 C 
HETATM   28  C   UNL     1      16.899  -6.791 -16.164  1.00  0.00     0.021 C 
HETATM   29  C   UNL     1      16.105  -8.094 -16.079  1.00  0.00     0.004 C 
HETATM   30  C   UNL     1      14.583  -7.956 -16.008  1.00  0.00     0.026 C 
HETATM   31  C   UNL     1      13.992  -6.719 -16.713  1.00  0.00     0.092 C 
HETATM   32  C   UNL     1      13.721  -7.113 -18.178  1.00  0.00     0.033 C 
ENDBRANCH  23  26
ENDBRANCH   8  23
ENDBRANCH   2   3
TORSDOF 5
ENDMDL
MODEL 9
REMARK VINA RESULT:      -6.9      5.762      9.619
REMARK  5 active torsions:
REMARK  status: ('A' for Active; 'I' for Inactive)
REMARK    1  A    between atoms: C_2  and  C_3 
REMARK    2  A    between atoms: C_6  and  C_19 
REMARK    3  A    between atoms: C_8  and  S_9 
REMARK    4  A    between atoms: S_9  and  N_12 
REMARK    5  A    between atoms: N_28  and  C_29 
ROOT
HETATM    1  C   UNL     1       8.687  -3.540 -21.385  1.00  0.00     0.010 C 
HETATM    2  C   UNL     1      10.144  -3.838 -21.646  1.00  0.00     0.035 C 
ENDROOT
BRANCH   2   3
HETATM    3  C   UNL     1      11.143  -3.041 -20.875  1.00  0.00    -0.035 A 
HETATM    4  C   UNL     1      10.633  -2.131 -19.933  1.00  0.00     0.009 A 
HETATM    5  C   UNL     1      11.470  -1.434 -19.073  1.00  0.00     0.014 A 
HETATM    6  C   UNL     1      12.853  -1.641 -19.086  1.00  0.00    -0.006 A 
HETATM    7  C   UNL     1      13.363  -2.587 -20.015  1.00  0.00     0.039 A 
HETATM    8  C   UNL     1      12.526  -3.255 -20.950  1.00  0.00     0.086 A 
BRANCH   6   9
HETATM    9  C   UNL     1      13.625  -0.768 -18.110  1.00  0.00     0.065 A 
HETATM   10  C   UNL     1      13.997  -1.268 -16.745  1.00  0.00    -0.017 A 
HETATM   11  C   UNL     1      13.598  -2.632 -16.262  1.00  0.00     0.042 C 
HETATM   12  C   UNL     1      14.745  -0.452 -15.977  1.00  0.00     0.020 A 
HETATM   13  C   UNL     1      14.291  -3.097 -14.986  1.00  0.00     0.005 C 
HETATM   14  C   UNL     1      14.344  -1.954 -13.988  1.00  0.00     0.005 C 
HETATM   15  C   UNL     1      15.156  -0.797 -14.568  1.00  0.00     0.045 C 
HETATM   16  C   UNL     1      15.237   0.862 -16.483  1.00  0.00     0.268 A 
HETATM   17  O   UNL     1      15.986   1.550 -15.790  1.00  0.00    -0.266 OA
HETATM   18  N   UNL     1      14.801   1.215 -17.750  1.00  0.00    -0.257 N 
HETATM   19  N   UNL     1      14.014   0.408 -18.543  1.00  0.00    -0.294 N 
HETATM   20  HN  UNL     1      13.733   0.726 -19.471  1.00  0.00     0.187 HD
BRANCH  18  21
HETATM   21  C   UNL     1      15.272   2.467 -18.343  1.00  0.00     0.148 C 
HETATM   22  C   UNL     1      16.419   2.261 -19.323  1.00  0.00     0.028 C 
ENDBRANCH  18  21
ENDBRANCH   6   9
BRANCH   8  23
HETATM   23  S   UNL     1      13.297  -4.073 -22.411  1.00  0.00     0.261 S 
HETATM   24  O   UNL     1      12.449  -3.786 -23.551  1.00  0.00    -0.200 OA
HETATM   25  O   UNL     1      14.677  -3.624 -22.409  1.00  0.00    -0.200 OA
BRANCH  23  26
HETATM   26  N   UNL     1      13.340  -5.761 -22.183  1.00  0.00    -0.302 N 
HETATM   27  C   UNL     1      13.463  -6.615 -23.360  1.00  0.00     0.136 C 
HETATM   28  C   UNL     1      14.914  -7.033 -23.462  1.00  0.00     0.021 C 
HETATM   29  C   UNL     1      15.413  -7.749 -22.206  1.00  0.00     0.004 C 
HETATM   30  C   UNL     1      14.965  -7.158 -20.867  1.00  0.00     0.026 C 
HETATM   31  C   UNL     1      13.599  -6.444 -20.877  1.00  0.00     0.092 C 
HETATM   32  C   UNL     1      12.525  -7.508 -20.576  1.00  0.00     0.033 C 
ENDBRANCH  23  26
ENDBRANCH   8  23
ENDBRANCH   2   3
TORSDOF 5
ENDMDL
