MODEL 1
REMARK VINA RESULT:      -7.8      0.000      0.000
REMARK  4 active torsions:
REMARK  status: ('A' for Active; 'I' for Inactive)
REMARK    1  A    between atoms: N_10  and  C_11 
REMARK    2  A    between atoms: N_20  and  N_22 
REMARK       I    between atoms: N_22  and  C_23 
REMARK    3  A    between atoms: C_23  and  C_25 
REMARK    4  A    between atoms: C_28  and  N_31 
ROOT
HETATM    1  C   UNL     1      12.826  -1.248 -18.194  1.00  0.00     0.022 C 
HETATM    2  C   UNL     1      13.015  -2.711 -18.653  1.00  0.00     0.006 A 
HETATM    3  C   UNL     1      13.177  -3.603 -17.401  1.00  0.00     0.022 C 
HETATM    4  C   UNL     1      11.720  -3.149 -19.387  1.00  0.00     0.075 A 
HETATM    5  C   UNL     1      11.931  -3.712 -20.741  1.00  0.00     0.051 A 
HETATM    6  C   UNL     1      13.119  -3.741 -21.431  1.00  0.00     0.058 A 
HETATM    7  C   UNL     1      12.780  -4.162 -22.720  1.00  0.00     0.125 A 
HETATM    8  N   UNL     1      11.466  -4.341 -22.862  1.00  0.00    -0.304 N 
HETATM    9  HN  UNL     1      10.961  -4.570 -23.718  1.00  0.00     0.186 HD
HETATM   10  N   UNL     1      10.945  -4.150 -21.619  1.00  0.00    -0.260 N 
HETATM   11  C   UNL     1      14.370  -3.329 -20.860  1.00  0.00     0.210 A 
HETATM   12  O   UNL     1      15.429  -3.381 -21.479  1.00  0.00    -0.285 OA
HETATM   13  C   UNL     1      14.360  -2.791 -19.423  1.00  0.00     0.085 A 
HETATM   14  N   UNL     1      15.428  -2.410 -18.780  1.00  0.00    -0.297 N 
HETATM   15  HN  UNL     1      15.346  -2.072 -17.822  1.00  0.00     0.187 HD
ENDROOT
BRANCH  14  16
HETATM   16  N   UNL     1      16.649  -2.459 -19.373  1.00  0.00    -0.266 N 
HETATM   17  C   UNL     1      17.296  -1.266 -19.658  1.00  0.00     0.270 C 
HETATM   18  O   UNL     1      16.856  -0.147 -19.407  1.00  0.00    -0.266 OA
HETATM   19  HN  UNL     1      17.014  -3.364 -19.671  1.00  0.00     0.190 HD
BRANCH  17  20
HETATM   20  C   UNL     1      18.600  -1.379 -20.364  1.00  0.00     0.033 A 
HETATM   21  C   UNL     1      19.509  -2.349 -19.912  1.00  0.00     0.019 A 
HETATM   22  C   UNL     1      20.765  -2.479 -20.510  1.00  0.00     0.037 A 
HETATM   23  C   UNL     1      21.107  -1.638 -21.576  1.00  0.00     0.102 A 
HETATM   24  C   UNL     1      20.192  -0.691 -22.061  1.00  0.00     0.037 A 
HETATM   25  C   UNL     1      18.937  -0.565 -21.456  1.00  0.00     0.019 A 
BRANCH  23  26
HETATM   26  N   UNL     1      22.441  -1.739 -22.183  1.00  0.00    -0.116 N 
HETATM   27  O   UNL     1      22.909  -2.871 -22.361  1.00  0.00    -0.532 OA
HETATM   28  O   UNL     1      23.022  -0.683 -22.473  1.00  0.00    -0.532 OA
ENDBRANCH  23  26
ENDBRANCH  17  20
ENDBRANCH  14  16
BRANCH  10  29
HETATM   29  C   UNL     1       9.556  -4.362 -21.387  1.00  0.00     0.056 A 
HETATM   30  C   UNL     1       9.058  -5.611 -20.996  1.00  0.00     0.031 A 
HETATM   31  C   UNL     1       7.697  -5.782 -20.740  1.00  0.00     0.002 A 
HETATM   32  C   UNL     1       6.819  -4.711 -20.884  1.00  0.00     0.000 A 
HETATM   33  C   UNL     1       7.300  -3.473 -21.309  1.00  0.00     0.002 A 
HETATM   34  C   UNL     1       8.662  -3.299 -21.575  1.00  0.00     0.031 A 
ENDBRANCH  10  29
TORSDOF 4
ENDMDL
MODEL 2
REMARK VINA RESULT:      -7.6      4.548      7.144
REMARK  4 active torsions:
REMARK  status: ('A' for Active; 'I' for Inactive)
REMARK    1  A    between atoms: N_10  and  C_11 
REMARK    2  A    between atoms: N_20  and  N_22 
REMARK       I    between atoms: N_22  and  C_23 
REMARK    3  A    between atoms: C_23  and  C_25 
REMARK    4  A    between atoms: C_28  and  N_31 
ROOT
HETATM    1  C   UNL     1      10.692  -4.179 -20.234  1.00  0.00     0.022 C 
HETATM    2  C   UNL     1      12.081  -3.537 -20.026  1.00  0.00     0.006 A 
HETATM    3  C   UNL     1      11.962  -2.015 -20.267  1.00  0.00     0.022 C 
HETATM    4  C   UNL     1      12.487  -3.754 -18.544  1.00  0.00     0.075 A 
HETATM    5  C   UNL     1      13.815  -4.379 -18.346  1.00  0.00     0.051 A 
HETATM    6  C   UNL     1      14.622  -4.897 -19.330  1.00  0.00     0.058 A 
HETATM    7  C   UNL     1      15.649  -5.557 -18.648  1.00  0.00     0.125 A 
HETATM    8  N   UNL     1      15.485  -5.511 -17.326  1.00  0.00    -0.304 N 
HETATM    9  HN  UNL     1      16.049  -5.977 -16.615  1.00  0.00     0.186 HD
HETATM   10  N   UNL     1      14.403  -4.709 -17.129  1.00  0.00    -0.260 N 
HETATM   11  C   UNL     1      14.327  -4.781 -20.730  1.00  0.00     0.210 A 
HETATM   12  O   UNL     1      15.068  -5.227 -21.602  1.00  0.00    -0.285 OA
HETATM   13  C   UNL     1      13.022  -4.083 -21.133  1.00  0.00     0.085 A 
HETATM   14  N   UNL     1      12.649  -3.889 -22.367  1.00  0.00    -0.297 N 
HETATM   15  HN  UNL     1      11.771  -3.407 -22.559  1.00  0.00     0.187 HD
ENDROOT
BRANCH  14  16
HETATM   16  N   UNL     1      13.417  -4.322 -23.399  1.00  0.00    -0.266 N 
HETATM   17  C   UNL     1      12.999  -5.432 -24.118  1.00  0.00     0.270 C 
HETATM   18  O   UNL     1      11.968  -6.063 -23.903  1.00  0.00    -0.266 OA
HETATM   19  HN  UNL     1      14.321  -3.875 -23.560  1.00  0.00     0.190 HD
BRANCH  17  20
HETATM   20  C   UNL     1      13.912  -5.898 -25.196  1.00  0.00     0.033 A 
HETATM   21  C   UNL     1      14.688  -7.042 -24.949  1.00  0.00     0.019 A 
HETATM   22  C   UNL     1      15.591  -7.507 -25.908  1.00  0.00     0.037 A 
HETATM   23  C   UNL     1      15.709  -6.828 -27.127  1.00  0.00     0.102 A 
HETATM   24  C   UNL     1      14.910  -5.707 -27.399  1.00  0.00     0.037 A 
HETATM   25  C   UNL     1      14.009  -5.245 -26.433  1.00  0.00     0.019 A 
BRANCH  23  26
HETATM   26  N   UNL     1      16.685  -7.285 -28.124  1.00  0.00    -0.116 N 
HETATM   27  O   UNL     1      17.671  -7.916 -27.718  1.00  0.00    -0.532 OA
HETATM   28  O   UNL     1      16.470  -7.003 -29.311  1.00  0.00    -0.532 OA
ENDBRANCH  23  26
ENDBRANCH  17  20
ENDBRANCH  14  16
BRANCH  10  29
HETATM   29  C   UNL     1      14.001  -4.364 -15.807  1.00  0.00     0.056 A 
HETATM   30  C   UNL     1      13.205  -5.218 -15.033  1.00  0.00     0.031 A 
HETATM   31  C   UNL     1      12.857  -4.870 -13.727  1.00  0.00     0.002 A 
HETATM   32  C   UNL     1      13.288  -3.662 -13.187  1.00  0.00     0.000 A 
HETATM   33  C   UNL     1      14.049  -2.788 -13.962  1.00  0.00     0.002 A 
HETATM   34  C   UNL     1      14.395  -3.128 -15.274  1.00  0.00     0.031 A 
ENDBRANCH  10  29
TORSDOF 4
ENDMDL
MODEL 3
REMARK VINA RESULT:      -7.6      4.528      7.205
REMARK  4 active torsions:
REMARK  status: ('A' for Active; 'I' for Inactive)
REMARK    1  A    between atoms: N_10  and  C_11 
REMARK    2  A    between atoms: N_20  and  N_22 
REMARK       I    between atoms: N_22  and  C_23 
REMARK    3  A    between atoms: C_23  and  C_25 
REMARK    4  A    between atoms: C_28  and  N_31 
ROOT
HETATM    1  C   UNL     1      10.736  -4.254 -20.195  1.00  0.00     0.022 C 
HETATM    2  C   UNL     1      12.116  -3.587 -19.999  1.00  0.00     0.006 A 
HETATM    3  C   UNL     1      11.969  -2.068 -20.247  1.00  0.00     0.022 C 
HETATM    4  C   UNL     1      12.535  -3.790 -18.519  1.00  0.00     0.075 A 
HETATM    5  C   UNL     1      13.874  -4.392 -18.326  1.00  0.00     0.051 A 
HETATM    6  C   UNL     1      14.684  -4.901 -19.314  1.00  0.00     0.058 A 
HETATM    7  C   UNL     1      15.726  -5.540 -18.635  1.00  0.00     0.125 A 
HETATM    8  N   UNL     1      15.570  -5.491 -17.312  1.00  0.00    -0.304 N 
HETATM    9  HN  UNL     1      16.146  -5.944 -16.603  1.00  0.00     0.186 HD
HETATM   10  N   UNL     1      14.475  -4.707 -17.112  1.00  0.00    -0.260 N 
HETATM   11  C   UNL     1      14.378  -4.796 -20.712  1.00  0.00     0.210 A 
HETATM   12  O   UNL     1      15.120  -5.234 -21.587  1.00  0.00    -0.285 OA
HETATM   13  C   UNL     1      13.058  -4.122 -21.110  1.00  0.00     0.085 A 
HETATM   14  N   UNL     1      12.675  -3.940 -22.342  1.00  0.00    -0.297 N 
HETATM   15  HN  UNL     1      11.788  -3.474 -22.531  1.00  0.00     0.187 HD
ENDROOT
BRANCH  14  16
HETATM   16  N   UNL     1      13.444  -4.365 -23.378  1.00  0.00    -0.266 N 
HETATM   17  C   UNL     1      13.006  -5.444 -24.131  1.00  0.00     0.270 C 
HETATM   18  O   UNL     1      11.956  -6.054 -23.945  1.00  0.00    -0.266 OA
HETATM   19  HN  UNL     1      14.361  -3.938 -23.516  1.00  0.00     0.190 HD
BRANCH  17  20
HETATM   20  C   UNL     1      13.918  -5.905 -25.211  1.00  0.00     0.033 A 
HETATM   21  C   UNL     1      14.688  -7.055 -24.974  1.00  0.00     0.019 A 
HETATM   22  C   UNL     1      15.591  -7.516 -25.935  1.00  0.00     0.037 A 
HETATM   23  C   UNL     1      15.715  -6.825 -27.147  1.00  0.00     0.102 A 
HETATM   24  C   UNL     1      14.923  -5.698 -27.410  1.00  0.00     0.037 A 
HETATM   25  C   UNL     1      14.022  -5.240 -26.441  1.00  0.00     0.019 A 
BRANCH  23  26
HETATM   26  N   UNL     1      16.692  -7.278 -28.145  1.00  0.00    -0.116 N 
HETATM   27  O   UNL     1      16.471  -7.005 -29.333  1.00  0.00    -0.532 OA
HETATM   28  O   UNL     1      17.676  -7.915 -27.741  1.00  0.00    -0.532 OA
ENDBRANCH  23  26
ENDBRANCH  17  20
ENDBRANCH  14  16
BRANCH  10  29
HETATM   29  C   UNL     1      14.076  -4.362 -15.789  1.00  0.00     0.056 A 
HETATM   30  C   UNL     1      14.520  -3.185 -15.171  1.00  0.00     0.031 A 
HETATM   31  C   UNL     1      14.084  -2.853 -13.887  1.00  0.00     0.002 A 
HETATM   32  C   UNL     1      13.214  -3.698 -13.205  1.00  0.00     0.000 A 
HETATM   33  C   UNL     1      12.797  -4.889 -13.796  1.00  0.00     0.002 A 
HETATM   34  C   UNL     1      13.236  -5.231 -15.079  1.00  0.00     0.031 A 
ENDBRANCH  10  29
TORSDOF 4
ENDMDL
MODEL 4
REMARK VINA RESULT:      -7.5      5.707      6.488
REMARK  4 active torsions:
REMARK  status: ('A' for Active; 'I' for Inactive)
REMARK    1  A    between atoms: N_10  and  C_11 
REMARK    2  A    between atoms: N_20  and  N_22 
REMARK       I    between atoms: N_22  and  C_23 
REMARK    3  A    between atoms: C_23  and  C_25 
REMARK    4  A    between atoms: C_28  and  N_31 
ROOT
HETATM    1  C   UNL     1      15.334  -8.649 -17.020  1.00  0.00     0.022 C 
HETATM    2  C   UNL     1      16.169  -9.188 -18.203  1.00  0.00     0.006 A 
HETATM    3  C   UNL     1      17.398  -9.937 -17.639  1.00  0.00     0.022 C 
HETATM    4  C   UNL     1      15.296 -10.215 -18.972  1.00  0.00     0.075 A 
HETATM    5  C   UNL     1      15.174  -9.965 -20.426  1.00  0.00     0.051 A 
HETATM    6  C   UNL     1      15.632  -8.858 -21.100  1.00  0.00     0.058 A 
HETATM    7  C   UNL     1      15.102  -8.973 -22.389  1.00  0.00     0.125 A 
HETATM    8  N   UNL     1      14.320 -10.044 -22.518  1.00  0.00    -0.304 N 
HETATM    9  HN  UNL     1      13.760 -10.309 -23.328  1.00  0.00     0.186 HD
HETATM   10  N   UNL     1      14.431 -10.710 -21.336  1.00  0.00    -0.260 N 
HETATM   11  C   UNL     1      16.421  -7.832 -20.480  1.00  0.00     0.210 A 
HETATM   12  O   UNL     1      16.845  -6.859 -21.098  1.00  0.00    -0.285 OA
HETATM   13  C   UNL     1      16.723  -7.965 -18.982  1.00  0.00     0.085 A 
HETATM   14  N   UNL     1      17.448  -7.118 -18.306  1.00  0.00    -0.297 N 
HETATM   15  HN  UNL     1      17.615  -7.278 -17.313  1.00  0.00     0.187 HD
ENDROOT
BRANCH  14  16
HETATM   16  N   UNL     1      17.983  -6.027 -18.910  1.00  0.00    -0.266 N 
HETATM   17  C   UNL     1      17.545  -4.770 -18.521  1.00  0.00     0.270 C 
HETATM   18  O   UNL     1      16.704  -4.555 -17.652  1.00  0.00    -0.266 OA
HETATM   19  HN  UNL     1      18.625  -6.164 -19.693  1.00  0.00     0.190 HD
BRANCH  17  20
HETATM   20  C   UNL     1      18.119  -3.615 -19.261  1.00  0.00     0.033 A 
HETATM   21  C   UNL     1      17.235  -2.630 -19.729  1.00  0.00     0.019 A 
HETATM   22  C   UNL     1      17.710  -1.540 -20.463  1.00  0.00     0.037 A 
HETATM   23  C   UNL     1      19.082  -1.432 -20.720  1.00  0.00     0.102 A 
HETATM   24  C   UNL     1      19.979  -2.390 -20.224  1.00  0.00     0.037 A 
HETATM   25  C   UNL     1      19.496  -3.481 -19.492  1.00  0.00     0.019 A 
BRANCH  23  26
HETATM   26  N   UNL     1      19.585  -0.313 -21.526  1.00  0.00    -0.116 N 
HETATM   27  O   UNL     1      20.695  -0.440 -22.061  1.00  0.00    -0.532 OA
HETATM   28  O   UNL     1      18.873   0.698 -21.616  1.00  0.00    -0.532 OA
ENDBRANCH  23  26
ENDBRANCH  17  20
ENDBRANCH  14  16
BRANCH  10  29
HETATM   29  C   UNL     1      13.791 -11.970 -21.164  1.00  0.00     0.056 A 
HETATM   30  C   UNL     1      12.405 -12.072 -20.984  1.00  0.00     0.031 A 
HETATM   31  C   UNL     1      11.799 -13.323 -20.853  1.00  0.00     0.002 A 
HETATM   32  C   UNL     1      12.570 -14.481 -20.888  1.00  0.00     0.000 A 
HETATM   33  C   UNL     1      13.954 -14.388 -21.030  1.00  0.00     0.002 A 
HETATM   34  C   UNL     1      14.568 -13.137 -21.152  1.00  0.00     0.031 A 
ENDBRANCH  10  29
TORSDOF 4
ENDMDL
MODEL 5
REMARK VINA RESULT:      -7.5     11.489     14.364
REMARK  4 active torsions:
REMARK  status: ('A' for Active; 'I' for Inactive)
REMARK    1  A    between atoms: N_10  and  C_11 
REMARK    2  A    between atoms: N_20  and  N_22 
REMARK       I    between atoms: N_22  and  C_23 
REMARK    3  A    between atoms: C_23  and  C_25 
REMARK    4  A    between atoms: C_28  and  N_31 
ROOT
HETATM    1  C   UNL     1      13.964 -17.155 -26.652  1.00  0.00     0.022 C 
HETATM    2  C   UNL     1      14.980 -16.020 -26.913  1.00  0.00     0.006 A 
HETATM    3  C   UNL     1      16.390 -16.522 -26.525  1.00  0.00     0.022 C 
HETATM    4  C   UNL     1      14.981 -15.726 -28.437  1.00  0.00     0.075 A 
HETATM    5  C   UNL     1      14.764 -14.307 -28.799  1.00  0.00     0.051 A 
HETATM    6  C   UNL     1      14.428 -13.292 -27.934  1.00  0.00     0.058 A 
HETATM    7  C   UNL     1      14.125 -12.201 -28.755  1.00  0.00     0.125 A 
HETATM    8  N   UNL     1      14.209 -12.507 -30.050  1.00  0.00    -0.304 N 
HETATM    9  HN  UNL     1      13.966 -11.915 -30.844  1.00  0.00     0.186 HD
HETATM   10  N   UNL     1      14.689 -13.781 -30.084  1.00  0.00    -0.260 N 
HETATM   11  C   UNL     1      14.366 -13.462 -26.511  1.00  0.00     0.210 A 
HETATM   12  O   UNL     1      14.088 -12.542 -25.746  1.00  0.00    -0.285 OA
HETATM   13  C   UNL     1      14.646 -14.858 -25.941  1.00  0.00     0.085 A 
HETATM   14  N   UNL     1      14.648 -15.139 -24.668  1.00  0.00    -0.297 N 
HETATM   15  HN  UNL     1      14.854 -16.090 -24.362  1.00  0.00     0.187 HD
ENDROOT
BRANCH  14  16
HETATM   16  N   UNL     1      14.380 -14.180 -23.745  1.00  0.00    -0.266 N 
HETATM   17  C   UNL     1      13.950 -14.572 -22.486  1.00  0.00     0.270 C 
HETATM   18  O   UNL     1      13.799 -15.735 -22.123  1.00  0.00    -0.266 OA
HETATM   19  HN  UNL     1      14.415 -13.201 -24.031  1.00  0.00     0.190 HD
BRANCH  17  20
HETATM   20  C   UNL     1      13.611 -13.478 -21.538  1.00  0.00     0.033 A 
HETATM   21  C   UNL     1      14.630 -12.994 -20.702  1.00  0.00     0.019 A 
HETATM   22  C   UNL     1      14.364 -11.993 -19.764  1.00  0.00     0.037 A 
HETATM   23  C   UNL     1      13.070 -11.465 -19.672  1.00  0.00     0.102 A 
HETATM   24  C   UNL     1      12.054 -11.914 -20.529  1.00  0.00     0.037 A 
HETATM   25  C   UNL     1      12.327 -12.919 -21.464  1.00  0.00     0.019 A 
BRANCH  23  26
HETATM   26  N   UNL     1      12.771 -10.443 -18.662  1.00  0.00    -0.116 N 
HETATM   27  O   UNL     1      13.693 -10.083 -17.916  1.00  0.00    -0.532 OA
HETATM   28  O   UNL     1      11.612 -10.007 -18.609  1.00  0.00    -0.532 OA
ENDBRANCH  23  26
ENDBRANCH  17  20
ENDBRANCH  14  16
BRANCH  10  29
HETATM   29  C   UNL     1      14.995 -14.395 -31.332  1.00  0.00     0.056 A 
HETATM   30  C   UNL     1      16.249 -14.245 -31.938  1.00  0.00     0.031 A 
HETATM   31  C   UNL     1      16.535 -14.888 -33.143  1.00  0.00     0.002 A 
HETATM   32  C   UNL     1      15.567 -15.675 -33.761  1.00  0.00     0.000 A 
HETATM   33  C   UNL     1      14.303 -15.801 -33.185  1.00  0.00     0.002 A 
HETATM   34  C   UNL     1      14.010 -15.152 -31.982  1.00  0.00     0.031 A 
ENDBRANCH  10  29
TORSDOF 4
ENDMDL
MODEL 6
REMARK VINA RESULT:      -7.2      7.022     10.929
REMARK  4 active torsions:
REMARK  status: ('A' for Active; 'I' for Inactive)
REMARK    1  A    between atoms: N_10  and  C_11 
REMARK    2  A    between atoms: N_20  and  N_22 
REMARK       I    between atoms: N_22  and  C_23 
REMARK    3  A    between atoms: C_23  and  C_25 
REMARK    4  A    between atoms: C_28  and  N_31 
ROOT
HETATM    1  C   UNL     1      16.320  -5.820 -20.718  1.00  0.00     0.022 C 
HETATM    2  C   UNL     1      17.127  -6.642 -19.689  1.00  0.00     0.006 A 
HETATM    3  C   UNL     1      18.533  -6.917 -20.270  1.00  0.00     0.022 C 
HETATM    4  C   UNL     1      17.298  -5.772 -18.416  1.00  0.00     0.075 A 
HETATM    5  C   UNL     1      16.869  -6.420 -17.155  1.00  0.00     0.051 A 
HETATM    6  C   UNL     1      16.220  -7.626 -17.043  1.00  0.00     0.058 A 
HETATM    7  C   UNL     1      15.839  -7.710 -15.700  1.00  0.00     0.125 A 
HETATM    8  N   UNL     1      16.172  -6.618 -15.013  1.00  0.00    -0.304 N 
HETATM    9  HN  UNL     1      15.941  -6.400 -14.044  1.00  0.00     0.186 HD
HETATM   10  N   UNL     1      16.887  -5.854 -15.884  1.00  0.00    -0.260 N 
HETATM   11  C   UNL     1      15.981  -8.496 -18.159  1.00  0.00     0.210 A 
HETATM   12  O   UNL     1      15.421  -9.582 -18.044  1.00  0.00    -0.285 OA
HETATM   13  C   UNL     1      16.436  -8.025 -19.546  1.00  0.00     0.085 A 
HETATM   14  N   UNL     1      16.302  -8.729 -20.636  1.00  0.00    -0.297 N 
HETATM   15  HN  UNL     1      16.638  -8.354 -21.523  1.00  0.00     0.187 HD
ENDROOT
BRANCH  14  16
HETATM   16  N   UNL     1      15.721  -9.955 -20.602  1.00  0.00    -0.266 N 
HETATM   17  C   UNL     1      14.550 -10.155 -21.318  1.00  0.00     0.270 C 
HETATM   18  O   UNL     1      13.988  -9.303 -22.002  1.00  0.00    -0.266 OA
HETATM   19  HN  UNL     1      16.111 -10.666 -19.982  1.00  0.00     0.190 HD
BRANCH  17  20
HETATM   20  C   UNL     1      13.924 -11.498 -21.192  1.00  0.00     0.033 A 
HETATM   21  C   UNL     1      14.765 -12.591 -20.930  1.00  0.00     0.019 A 
HETATM   22  C   UNL     1      14.242 -13.883 -20.838  1.00  0.00     0.037 A 
HETATM   23  C   UNL     1      12.865 -14.079 -21.000  1.00  0.00     0.102 A 
HETATM   24  C   UNL     1      12.011 -12.989 -21.224  1.00  0.00     0.037 A 
HETATM   25  C   UNL     1      12.542 -11.698 -21.317  1.00  0.00     0.019 A 
BRANCH  23  26
HETATM   26  N   UNL     1      12.312 -15.438 -20.947  1.00  0.00    -0.116 N 
HETATM   27  O   UNL     1      12.495 -16.174 -21.927  1.00  0.00    -0.532 OA
HETATM   28  O   UNL     1      11.686 -15.766 -19.928  1.00  0.00    -0.532 OA
ENDBRANCH  23  26
ENDBRANCH  17  20
ENDBRANCH  14  16
BRANCH  10  29
HETATM   29  C   UNL     1      17.487  -4.640 -15.443  1.00  0.00     0.056 A 
HETATM   30  C   UNL     1      18.877  -4.463 -15.446  1.00  0.00     0.031 A 
HETATM   31  C   UNL     1      19.437  -3.250 -15.043  1.00  0.00     0.002 A 
HETATM   32  C   UNL     1      18.616  -2.208 -14.621  1.00  0.00     0.000 A 
HETATM   33  C   UNL     1      17.234  -2.386 -14.579  1.00  0.00     0.002 A 
HETATM   34  C   UNL     1      16.669  -3.603 -14.974  1.00  0.00     0.031 A 
ENDBRANCH  10  29
TORSDOF 4
ENDMDL
MODEL 7
REMARK VINA RESULT:      -7.2      8.255     11.399
REMARK  4 active torsions:
REMARK  status: ('A' for Active; 'I' for Inactive)
REMARK    1  A    between atoms: N_10  and  C_11 
REMARK    2  A    between atoms: N_20  and  N_22 
REMARK       I    between atoms: N_22  and  C_23 
REMARK    3  A    between atoms: C_23  and  C_25 
REMARK    4  A    between atoms: C_28  and  N_31 
ROOT
HETATM    1  C   UNL     1      13.533 -10.116 -29.193  1.00  0.00     0.022 C 
HETATM    2  C   UNL     1      15.035  -9.769 -29.085  1.00  0.00     0.006 A 
HETATM    3  C   UNL     1      15.855 -11.069 -29.256  1.00  0.00     0.022 C 
HETATM    4  C   UNL     1      15.390  -8.823 -30.263  1.00  0.00     0.075 A 
HETATM    5  C   UNL     1      16.059  -7.562 -29.870  1.00  0.00     0.051 A 
HETATM    6  C   UNL     1      16.251  -7.112 -28.585  1.00  0.00     0.058 A 
HETATM    7  C   UNL     1      16.721  -5.803 -28.726  1.00  0.00     0.125 A 
HETATM    8  N   UNL     1      16.776  -5.422 -30.003  1.00  0.00    -0.304 N 
HETATM    9  HN  UNL     1      17.010  -4.497 -30.364  1.00  0.00     0.186 HD
HETATM   10  N   UNL     1      16.453  -6.533 -30.720  1.00  0.00    -0.260 N 
HETATM   11  C   UNL     1      15.930  -7.891 -27.424  1.00  0.00     0.210 A 
HETATM   12  O   UNL     1      16.128  -7.488 -26.281  1.00  0.00    -0.285 OA
HETATM   13  C   UNL     1      15.300  -9.273 -27.639  1.00  0.00     0.085 A 
HETATM   14  N   UNL     1      14.986 -10.089 -26.672  1.00  0.00    -0.297 N 
HETATM   15  HN  UNL     1      14.578 -10.998 -26.891  1.00  0.00     0.187 HD
ENDROOT
BRANCH  14  16
HETATM   16  N   UNL     1      15.195  -9.743 -25.376  1.00  0.00    -0.266 N 
HETATM   17  C   UNL     1      14.095  -9.578 -24.547  1.00  0.00     0.270 C 
HETATM   18  O   UNL     1      12.925  -9.731 -24.889  1.00  0.00    -0.266 OA
HETATM   19  HN  UNL     1      16.145  -9.527 -25.073  1.00  0.00     0.190 HD
BRANCH  17  20
HETATM   20  C   UNL     1      14.381  -9.136 -23.156  1.00  0.00     0.033 A 
HETATM   21  C   UNL     1      14.963  -7.871 -22.976  1.00  0.00     0.019 A 
HETATM   22  C   UNL     1      15.290  -7.416 -21.697  1.00  0.00     0.037 A 
HETATM   23  C   UNL     1      15.021  -8.229 -20.589  1.00  0.00     0.102 A 
HETATM   24  C   UNL     1      14.405  -9.478 -20.754  1.00  0.00     0.037 A 
HETATM   25  C   UNL     1      14.082  -9.930 -22.039  1.00  0.00     0.019 A 
BRANCH  23  26
HETATM   26  N   UNL     1      15.400  -7.777 -19.245  1.00  0.00    -0.116 N 
HETATM   27  O   UNL     1      15.753  -8.636 -18.425  1.00  0.00    -0.532 OA
HETATM   28  O   UNL     1      15.335  -6.562 -19.007  1.00  0.00    -0.532 OA
ENDBRANCH  23  26
ENDBRANCH  17  20
ENDBRANCH  14  16
BRANCH  10  29
HETATM   29  C   UNL     1      16.509  -6.506 -32.142  1.00  0.00     0.056 A 
HETATM   30  C   UNL     1      16.588  -7.684 -32.897  1.00  0.00     0.031 A 
HETATM   31  C   UNL     1      16.604  -7.630 -34.292  1.00  0.00     0.002 A 
HETATM   32  C   UNL     1      16.557  -6.402 -34.944  1.00  0.00     0.000 A 
HETATM   33  C   UNL     1      16.517  -5.223 -34.201  1.00  0.00     0.002 A 
HETATM   34  C   UNL     1      16.508  -5.271 -32.804  1.00  0.00     0.031 A 
ENDBRANCH  10  29
TORSDOF 4
ENDMDL
MODEL 8
REMARK VINA RESULT:      -7.1      8.083     10.477
REMARK  4 active torsions:
REMARK  status: ('A' for Active; 'I' for Inactive)
REMARK    1  A    between atoms: N_10  and  C_11 
REMARK    2  A    between atoms: N_20  and  N_22 
REMARK       I    between atoms: N_22  and  C_23 
REMARK    3  A    between atoms: C_23  and  C_25 
REMARK    4  A    between atoms: C_28  and  N_31 
ROOT
HETATM    1  C   UNL     1      14.901  -9.311 -22.383  1.00  0.00     0.022 C 
HETATM    2  C   UNL     1      13.828  -8.811 -23.377  1.00  0.00     0.006 A 
HETATM    3  C   UNL     1      12.532  -9.623 -23.153  1.00  0.00     0.022 C 
HETATM    4  C   UNL     1      13.525  -7.327 -23.042  1.00  0.00     0.075 A 
HETATM    5  C   UNL     1      13.636  -6.393 -24.186  1.00  0.00     0.051 A 
HETATM    6  C   UNL     1      14.110  -6.700 -25.440  1.00  0.00     0.058 A 
HETATM    7  C   UNL     1      14.224  -5.471 -26.096  1.00  0.00     0.125 A 
HETATM    8  N   UNL     1      13.897  -4.447 -25.307  1.00  0.00    -0.304 N 
HETATM    9  HN  UNL     1      13.968  -3.452 -25.520  1.00  0.00     0.186 HD
HETATM   10  N   UNL     1      13.448  -5.015 -24.154  1.00  0.00    -0.260 N 
HETATM   11  C   UNL     1      14.450  -8.034 -25.846  1.00  0.00     0.210 A 
HETATM   12  O   UNL     1      14.851  -8.300 -26.976  1.00  0.00    -0.285 OA
HETATM   13  C   UNL     1      14.318  -9.156 -24.809  1.00  0.00     0.085 A 
HETATM   14  N   UNL     1      14.569 -10.411 -25.056  1.00  0.00    -0.297 N 
HETATM   15  HN  UNL     1      14.448 -11.105 -24.318  1.00  0.00     0.187 HD
ENDROOT
BRANCH  14  16
HETATM   16  N   UNL     1      14.989 -10.805 -26.285  1.00  0.00    -0.266 N 
HETATM   17  C   UNL     1      14.574 -12.039 -26.766  1.00  0.00     0.270 C 
HETATM   18  O   UNL     1      13.836 -12.816 -26.167  1.00  0.00    -0.266 OA
HETATM   19  HN  UNL     1      15.668 -10.225 -26.781  1.00  0.00     0.190 HD
BRANCH  17  20
HETATM   20  C   UNL     1      15.117 -12.445 -28.089  1.00  0.00     0.033 A 
HETATM   21  C   UNL     1      15.169 -13.816 -28.384  1.00  0.00     0.019 A 
HETATM   22  C   UNL     1      15.703 -14.262 -29.596  1.00  0.00     0.037 A 
HETATM   23  C   UNL     1      16.177 -13.326 -30.523  1.00  0.00     0.102 A 
HETATM   24  C   UNL     1      16.094 -11.951 -30.255  1.00  0.00     0.037 A 
HETATM   25  C   UNL     1      15.560 -11.512 -29.038  1.00  0.00     0.019 A 
BRANCH  23  26
HETATM   26  N   UNL     1      16.778 -13.787 -31.781  1.00  0.00    -0.116 N 
HETATM   27  O   UNL     1      17.550 -14.754 -31.730  1.00  0.00    -0.532 OA
HETATM   28  O   UNL     1      16.483 -13.175 -32.818  1.00  0.00    -0.532 OA
ENDBRANCH  23  26
ENDBRANCH  17  20
ENDBRANCH  14  16
BRANCH  10  29
HETATM   29  C   UNL     1      12.920  -4.199 -23.113  1.00  0.00     0.056 A 
HETATM   30  C   UNL     1      11.593  -3.751 -23.132  1.00  0.00     0.031 A 
HETATM   31  C   UNL     1      11.091  -2.982 -22.080  1.00  0.00     0.002 A 
HETATM   32  C   UNL     1      11.912  -2.642 -21.009  1.00  0.00     0.000 A 
HETATM   33  C   UNL     1      13.245  -3.052 -21.000  1.00  0.00     0.002 A 
HETATM   34  C   UNL     1      13.755  -3.815 -22.055  1.00  0.00     0.031 A 
ENDBRANCH  10  29
TORSDOF 4
ENDMDL
MODEL 9
REMARK VINA RESULT:      -7.1      6.080      8.912
REMARK  4 active torsions:
REMARK  status: ('A' for Active; 'I' for Inactive)
REMARK    1  A    between atoms: N_10  and  C_11 
REMARK    2  A    between atoms: N_20  and  N_22 
REMARK       I    between atoms: N_22  and  C_23 
REMARK    3  A    between atoms: C_23  and  C_25 
REMARK    4  A    between atoms: C_28  and  N_31 
ROOT
HETATM    1  C   UNL     1      14.619  -8.865 -23.578  1.00  0.00     0.022 C 
HETATM    2  C   UNL     1      13.278  -9.085 -22.843  1.00  0.00     0.006 A 
HETATM    3  C   UNL     1      12.124  -8.891 -23.853  1.00  0.00     0.022 C 
HETATM    4  C   UNL     1      13.240 -10.558 -22.354  1.00  0.00     0.075 A 
HETATM    5  C   UNL     1      12.953 -10.729 -20.911  1.00  0.00     0.051 A 
HETATM    6  C   UNL     1      12.865  -9.724 -19.977  1.00  0.00     0.058 A 
HETATM    7  C   UNL     1      12.795 -10.380 -18.744  1.00  0.00     0.125 A 
HETATM    8  N   UNL     1      12.884 -11.704 -18.873  1.00  0.00    -0.304 N 
HETATM    9  HN  UNL     1      12.935 -12.397 -18.126  1.00  0.00     0.186 HD
HETATM   10  N   UNL     1      12.892 -11.932 -20.215  1.00  0.00    -0.260 N 
HETATM   11  C   UNL     1      12.918  -8.331 -20.315  1.00  0.00     0.210 A 
HETATM   12  O   UNL     1      12.815  -7.441 -19.475  1.00  0.00    -0.285 OA
HETATM   13  C   UNL     1      13.130  -7.957 -21.788  1.00  0.00     0.085 A 
HETATM   14  N   UNL     1      13.171  -6.731 -22.230  1.00  0.00    -0.297 N 
HETATM   15  HN  UNL     1      13.305  -6.559 -23.226  1.00  0.00     0.187 HD
ENDROOT
BRANCH  14  16
HETATM   16  N   UNL     1      13.037  -5.682 -21.379  1.00  0.00    -0.266 N 
HETATM   17  C   UNL     1      11.950  -4.835 -21.535  1.00  0.00     0.270 C 
HETATM   18  O   UNL     1      11.074  -4.961 -22.387  1.00  0.00    -0.266 OA
HETATM   19  HN  UNL     1      13.785  -5.494 -20.710  1.00  0.00     0.190 HD
BRANCH  17  20
HETATM   20  C   UNL     1      11.890  -3.667 -20.616  1.00  0.00     0.033 A 
HETATM   21  C   UNL     1      12.320  -3.851 -19.293  1.00  0.00     0.019 A 
HETATM   22  C   UNL     1      12.254  -2.803 -18.372  1.00  0.00     0.037 A 
HETATM   23  C   UNL     1      11.762  -1.558 -18.784  1.00  0.00     0.102 A 
HETATM   24  C   UNL     1      11.365  -1.352 -20.114  1.00  0.00     0.037 A 
HETATM   25  C   UNL     1      11.433  -2.408 -21.030  1.00  0.00     0.019 A 
BRANCH  23  26
HETATM   26  N   UNL     1      11.648  -0.463 -17.813  1.00  0.00    -0.116 N 
HETATM   27  O   UNL     1      11.077   0.574 -18.177  1.00  0.00    -0.532 OA
HETATM   28  O   UNL     1      12.141  -0.637 -16.688  1.00  0.00    -0.532 OA
ENDBRANCH  23  26
ENDBRANCH  17  20
ENDBRANCH  14  16
BRANCH  10  29
HETATM   29  C   UNL     1      12.883 -13.265 -20.713  1.00  0.00     0.056 A 
HETATM   30  C   UNL     1      14.070 -13.956 -20.987  1.00  0.00     0.031 A 
HETATM   31  C   UNL     1      14.032 -15.276 -21.440  1.00  0.00     0.002 A 
HETATM   32  C   UNL     1      12.810 -15.913 -21.636  1.00  0.00     0.000 A 
HETATM   33  C   UNL     1      11.622 -15.221 -21.402  1.00  0.00     0.002 A 
HETATM   34  C   UNL     1      11.654 -13.896 -20.956  1.00  0.00     0.031 A 
ENDBRANCH  10  29
TORSDOF 4
ENDMDL
