@<TRIPOS>MOLECULE
gas_complex
   69    73     1     0     0
SMALL
bcc


@<TRIPOS>ATOM
      1 N           16.7160    -9.1630   -18.9850 nh         1 LIG      -0.649000
      2 C           15.9200   -10.4140   -18.9220 c3         1 LIG       0.306800
      3 O           22.2950    -1.7970   -20.9780 os         1 LIG      -0.328900
      4 C01         17.5880    -6.1390   -15.0020 c3         1 LIG       0.693200
      5 C1          15.3490   -10.8920   -20.2210 ca         1 LIG      -0.128300
      6 N1          15.8050    -8.6950   -21.1770 ne         1 LIG      -0.650100
      7 O1          18.6410   -10.9050   -17.5550 os         1 LIG      -0.319900
      8 C2          15.2300    -9.9910   -21.2640 ca         1 LIG       0.141400
      9 N2          17.0400    -7.0320   -20.0510 nh         1 LIG      -0.688600
     10 O2          12.6290   -11.2440   -18.6410 o          1 LIG      -0.536000
     11 C3          14.4640   -10.4390   -22.3530 ca         1 LIG       0.148900
     12 N3          18.1880    -4.3540   -19.8780 nh         1 LIG      -0.640000
     13 O3          13.1100    -9.0760   -18.9760 oh         1 LIG      -0.617100
     14 C4          13.8520   -11.7150   -22.3750 ca         1 LIG      -0.154000
     15 C5          14.0370   -12.6160   -21.3360 ca         1 LIG      -0.114000
     16 C6          14.8190   -12.2130   -20.2700 ca         1 LIG      -0.118000
     17 C7          16.4870    -8.3160   -20.1100 c2         1 LIG       0.818100
     18 C8          16.3850    -5.9110   -20.7870 c3         1 LIG       0.164800
     19 C9          16.7390    -4.5240   -20.1570 c3         1 LIG       0.186300
     20 C10         18.8510    -5.5240   -19.2630 c3         1 LIG       0.186300
     21 C11         18.5100    -6.8190   -20.0690 c3         1 LIG       0.164800
     22 C12         18.8810    -3.2090   -20.2500 ca         1 LIG       0.168600
     23 C13         20.2900    -3.1590   -20.3930 ca         1 LIG      -0.230000
     24 C14         20.9500    -1.9840   -20.8000 ca         1 LIG       0.143100
     25 C15         20.2060    -0.8370   -21.0770 ca         1 LIG      -0.180000
     26 C16         18.8290    -0.8540   -20.9360 ca         1 LIG      -0.078000
     27 C17         18.1860    -2.0200   -20.5280 ca         1 LIG      -0.212000
     28 C18         23.1170    -2.9420   -21.1300 c3         1 LIG       0.113700
     29 C19         17.3580    -8.8750   -17.7190 ca         1 LIG       0.118600
     30 C20         18.0240    -9.8510   -16.9410 ca         1 LIG       0.150100
     31 C21         17.9300    -9.8150   -15.5490 ca         1 LIG      -0.214000
     32 C22         17.5720    -8.6450   -14.9160 ca         1 LIG      -0.044000
     33 C23         17.4650    -7.4980   -15.6890 ca         1 LIG      -0.204300
     34 C24         17.3190    -7.6350   -17.0840 ca         1 LIG      -0.036000
     35 C25         18.6820   -12.1470   -16.8590 c3         1 LIG       0.109700
     36 C27         14.7690   -10.4150   -17.8860 c3         1 LIG      -0.156400
     37 C28         13.3980   -10.2950   -18.5050 c          1 LIG       0.641100
     38 F           14.2560    -9.6450   -23.4120 f          1 LIG      -0.122900
     39 F01         18.7920    -5.5780   -15.1890 f          1 LIG      -0.238300
     40 F02         16.6800    -5.2860   -15.5020 f          1 LIG      -0.238300
     41 F03         17.3640    -6.1930   -13.6800 f          1 LIG      -0.238300
     42 H01         15.0320   -12.9110   -19.4610 ha         1 LIG       0.134000
     43 H02         13.2250   -11.9940   -23.2220 ha         1 LIG       0.151000
     44 H03         13.5820   -13.6060   -21.3600 ha         1 LIG       0.140000
     45 H04         17.1700    -6.7400   -17.6880 ha         1 LIG       0.173000
     46 H08         17.1010    -2.0100   -20.4200 ha         1 LIG       0.137000
     47 H10         18.2480     0.0450   -21.1440 ha         1 LIG       0.133000
     48 H14         16.4600    -3.7610   -20.8840 h1         1 LIG       0.048450
     49 H15         16.1920    -4.4200   -19.2200 h1         1 LIG       0.048450
     50 H26         14.9100    -9.5400   -17.2510 hc         1 LIG       0.088200
     51 H27         14.8130   -11.3470   -17.3220 hc         1 LIG       0.088200
     52 H28         12.9620    -9.1250   -19.9230 ho         1 LIG       0.446000
     53 H05         18.1390   -10.7110   -14.9640 ha         1 LIG       0.149000
     54 H06         17.3790    -8.6210   -13.8430 ha         1 LIG       0.155000
     55 H07         20.8770    -4.0530   -20.1830 ha         1 LIG       0.141000
     56 H09         20.7090     0.0730   -21.4050 ha         1 LIG       0.149000
     57 H11         16.6990   -11.1070   -18.6030 h1         1 LIG       0.082700
     58 H12         15.3050    -6.0480   -20.7250 h1         1 LIG       0.058700
     59 H13         16.7190    -5.9250   -21.8240 h1         1 LIG       0.058700
     60 H16         18.4960    -5.6380   -18.2390 h1         1 LIG       0.048450
     61 H17         19.9300    -5.3700   -19.2660 h1         1 LIG       0.048450
     62 H18         18.8520    -6.7100   -21.0980 h1         1 LIG       0.058700
     63 H19         19.0090    -7.6750   -19.6140 h1         1 LIG       0.058700
     64 H20         24.0580    -2.7850   -20.6030 h1         1 LIG       0.043700
     65 H21         22.6090    -3.8120   -20.7140 h1         1 LIG       0.043700
     66 H22         23.3170    -3.1080   -22.1880 h1         1 LIG       0.043700
     67 H23         19.0590   -11.9850   -15.8490 h1         1 LIG       0.051367
     68 H24         17.6780   -12.5690   -16.8080 h1         1 LIG       0.051367
     69 H25         19.3410   -12.8380   -17.3850 h1         1 LIG       0.051367
@<TRIPOS>BOND
     1     1     2 1   
     2     1    17 1   
     3     1    29 1   
     4     2     5 1   
     5     2    36 1   
     6     2    57 1   
     7     3    24 1   
     8     3    28 1   
     9     4    39 1   
    10     4    40 1   
    11     4    41 1   
    12     5     8 ar  
    13     5    16 ar  
    14     6     8 1   
    15     6    17 2   
    16     7    30 1   
    17     7    35 1   
    18     8    11 ar  
    19     9    17 1   
    20     9    18 1   
    21     9    21 1   
    22    10    37 2   
    23    11    14 ar  
    24    11    38 1   
    25    12    19 1   
    26    12    20 1   
    27    12    22 1   
    28    13    37 1   
    29    13    52 1   
    30    14    15 ar  
    31    14    43 1   
    32    15    16 ar  
    33    15    44 1   
    34    16    42 1   
    35    18    19 1   
    36    18    58 1   
    37    18    59 1   
    38    19    48 1   
    39    19    49 1   
    40    20    21 1   
    41    20    60 1   
    42    20    61 1   
    43    21    62 1   
    44    21    63 1   
    45    22    23 ar  
    46    22    27 ar  
    47    23    24 ar  
    48    23    55 1   
    49    24    25 ar  
    50    25    26 ar  
    51    25    56 1   
    52    26    27 ar  
    53    26    47 1   
    54    27    46 1   
    55    28    64 1   
    56    28    65 1   
    57    28    66 1   
    58    29    30 ar  
    59    29    34 ar  
    60    30    31 ar  
    61    31    32 ar  
    62    31    53 1   
    63    32    33 ar  
    64    32    54 1   
    65     4    33 1   
    66    33    34 ar  
    67    34    45 1   
    68    35    67 1   
    69    35    68 1   
    70    35    69 1   
    71    36    37 1   
    72    36    50 1   
    73    36    51 1   
@<TRIPOS>SUBSTRUCTURE
     1 LIG         1 TEMP              0 ****  ****    0 ROOT
