# created with PyMOL 2.5.0
@<TRIPOS>MOLECULE
gas_complex
69 73 1                 
SMALL
USER_CHARGES
@<TRIPOS>ATOM
1	   N	16.716	-9.163	-18.985	N.pl3	1	LIG764	0.000	
2	   C	15.920	-10.414	-18.922	C.3	1	LIG764	0.000	
3	   O	22.295	-1.797	-20.978	O.3	1	LIG764	0.000	
4	 C01	17.588	-6.139	-15.002	C.3	1	LIG764	0.000	
5	  C1	15.349	-10.892	-20.221	C.2	1	LIG764	0.000	
6	  N1	15.805	-8.695	-21.177	N.2	1	LIG764	0.000	
7	  O1	18.641	-10.905	-17.555	O.3	1	LIG764	0.000	
8	  C2	15.230	-9.991	-21.264	C.2	1	LIG764	0.000	
9	  N2	17.040	-7.032	-20.051	N.pl3	1	LIG764	0.000	
10	  O2	12.629	-11.244	-18.641	O.co2	1	LIG764	0.000	
11	  C3	14.464	-10.439	-22.353	C.2	1	LIG764	0.000	
12	  N3	18.188	-4.354	-19.878	N.pl3	1	LIG764	0.000	
13	  O3	13.110	-9.076	-18.976	O.3	1	LIG764	0.000	
14	  C4	13.852	-11.715	-22.375	C.2	1	LIG764	0.000	
15	  C5	14.037	-12.616	-21.336	C.2	1	LIG764	0.000	
16	  C6	14.819	-12.213	-20.270	C.2	1	LIG764	0.000	
17	  C7	16.487	-8.316	-20.110	C.2	1	LIG764	0.000	
18	  C8	16.385	-5.911	-20.787	C.3	1	LIG764	0.000	
19	  C9	16.739	-4.524	-20.157	C.3	1	LIG764	0.000	
20	 C10	18.851	-5.524	-19.263	C.3	1	LIG764	0.000	
21	 C11	18.510	-6.819	-20.069	C.3	1	LIG764	0.000	
22	 C12	18.881	-3.209	-20.250	C.2	1	LIG764	0.000	
23	 C13	20.290	-3.159	-20.393	C.2	1	LIG764	0.000	
24	 C14	20.950	-1.984	-20.800	C.2	1	LIG764	0.000	
25	 C15	20.206	-0.837	-21.077	C.2	1	LIG764	0.000	
26	 C16	18.829	-0.854	-20.936	C.2	1	LIG764	0.000	
27	 C17	18.186	-2.020	-20.528	C.2	1	LIG764	0.000	
28	 C18	23.117	-2.942	-21.130	C.3	1	LIG764	0.000	
29	 C19	17.358	-8.875	-17.719	C.2	1	LIG764	0.000	
30	 C20	18.024	-9.851	-16.941	C.2	1	LIG764	0.000	
31	 C21	17.930	-9.815	-15.549	C.2	1	LIG764	0.000	
32	 C22	17.572	-8.645	-14.916	C.2	1	LIG764	0.000	
33	 C23	17.465	-7.498	-15.689	C.2	1	LIG764	0.000	
34	 C24	17.319	-7.635	-17.084	C.2	1	LIG764	0.000	
35	 C25	18.682	-12.147	-16.859	C.3	1	LIG764	0.000	
36	 C27	14.769	-10.415	-17.886	C.3	1	LIG764	0.000	
37	 C28	13.398	-10.295	-18.505	C.2	1	LIG764	0.000	
38	   F	14.256	-9.645	-23.412	 F	1	LIG764	0.000	
39	 F01	18.792	-5.578	-15.189	 F	1	LIG764	0.000	
40	 F02	16.680	-5.286	-15.502	 F	1	LIG764	0.000	
41	 F03	17.364	-6.193	-13.680	 F	1	LIG764	0.000	
42	 H01	15.032	-12.911	-19.461	 H	1	LIG764	0.000	
43	 H02	13.225	-11.994	-23.222	 H	1	LIG764	0.000	
44	 H03	13.582	-13.606	-21.360	 H	1	LIG764	0.000	
45	 H04	17.170	-6.740	-17.688	 H	1	LIG764	0.000	
46	 H08	17.101	-2.010	-20.420	 H	1	LIG764	0.000	
47	 H10	18.248	0.045	-21.144	 H	1	LIG764	0.000	
48	 H14	16.460	-3.761	-20.884	 H	1	LIG764	0.000	
49	 H15	16.192	-4.420	-19.220	 H	1	LIG764	0.000	
50	 H26	14.910	-9.540	-17.251	 H	1	LIG764	0.000	
51	 H27	14.813	-11.347	-17.322	 H	1	LIG764	0.000	
52	 H28	12.962	-9.125	-19.923	 H	1	LIG764	0.000	
53	 H05	18.139	-10.711	-14.964	 H	1	LIG764	0.000	
54	 H06	17.379	-8.621	-13.843	 H	1	LIG764	0.000	
55	 H07	20.877	-4.053	-20.183	 H	1	LIG764	0.000	
56	 H09	20.709	0.073	-21.405	 H	1	LIG764	0.000	
57	 H11	16.699	-11.107	-18.603	 H	1	LIG764	0.000	
58	 H12	15.305	-6.048	-20.725	 H	1	LIG764	0.000	
59	 H13	16.719	-5.925	-21.824	 H	1	LIG764	0.000	
60	 H16	18.496	-5.638	-18.239	 H	1	LIG764	0.000	
61	 H17	19.930	-5.370	-19.266	 H	1	LIG764	0.000	
62	 H18	18.852	-6.710	-21.098	 H	1	LIG764	0.000	
63	 H19	19.009	-7.675	-19.614	 H	1	LIG764	0.000	
64	 H20	24.058	-2.785	-20.603	 H	1	LIG764	0.000	
65	 H21	22.609	-3.812	-20.714	 H	1	LIG764	0.000	
66	 H22	23.317	-3.108	-22.188	 H	1	LIG764	0.000	
67	 H23	19.059	-11.985	-15.849	 H	1	LIG764	0.000	
68	 H24	17.678	-12.569	-16.808	 H	1	LIG764	0.000	
69	 H25	19.341	-12.838	-17.385	 H	1	LIG764	0.000	
@<TRIPOS>BOND
1 1 2 1
2 1 17 1
3 1 29 1
4 2 5 1
5 2 36 1
6 2 57 1
7 3 24 1
8 3 28 1
9 4 39 1
10 4 40 1
11 4 41 1
12 5 8 ar
13 5 16 ar
14 6 8 1
15 6 17 2
16 7 30 1
17 7 35 1
18 8 11 ar
19 9 17 1
20 9 18 1
21 9 21 1
22 10 37 2
23 11 14 ar
24 11 38 1
25 12 19 1
26 12 20 1
27 12 22 1
28 13 37 1
29 13 52 1
30 14 15 ar
31 14 43 1
32 15 16 ar
33 15 44 1
34 16 42 1
35 18 19 1
36 18 58 1
37 18 59 1
38 19 48 1
39 19 49 1
40 20 21 1
41 20 60 1
42 20 61 1
43 21 62 1
44 21 63 1
45 22 23 ar
46 22 27 ar
47 23 24 ar
48 23 55 1
49 24 25 ar
50 25 26 ar
51 25 56 1
52 26 27 ar
53 26 47 1
54 27 46 1
55 28 64 1
56 28 65 1
57 28 66 1
58 29 30 ar
59 29 34 ar
60 30 31 ar
61 31 32 ar
62 31 53 1
63 32 33 ar
64 32 54 1
65 4 33 1
66 33 34 ar
67 34 45 1
68 35 67 1
69 35 68 1
70 35 69 1
71 36 37 1
72 36 50 1
73 36 51 1
@<TRIPOS>SUBSTRUCTURE
1	LIG764	1	GROUP	1 ****	LIG
