MODEL 1
REMARK VINA RESULT:      -8.2      0.000      0.000
REMARK  7 active torsions:
REMARK  status: ('A' for Active; 'I' for Inactive)
REMARK    1  A    between atoms: N_19  and  C_20 
REMARK    2  A    between atoms: C_25  and  C_26 
REMARK    3  A    between atoms: C_26  and  O_28 
REMARK    4  A    between atoms: O_28  and  C_29 
REMARK    5  A    between atoms: C_29  and  C_30 
REMARK    6  A    between atoms: C_30  and  C_32 
REMARK    7  A    between atoms: C_35  and  N_38 
ROOT
HETATM    1  C   UNL     1      13.835  -3.876 -13.015  1.00  0.00     0.001 C 
HETATM    2  C   UNL     1      14.029  -4.967 -13.871  1.00  0.00     0.001 C 
HETATM    3  C   UNL     1      14.265  -4.780 -15.241  1.00  0.00     0.010 C 
HETATM    4  C   UNL     1      14.305  -3.488 -15.758  1.00  0.00    -0.026 C 
HETATM    5  C   UNL     1      13.961  -2.405 -14.894  1.00  0.00    -0.041 C 
HETATM    6  C   UNL     1      13.784  -2.584 -13.526  1.00  0.00     0.008 C 
HETATM    7  C   UNL     1      13.934  -1.044 -15.594  1.00  0.00     0.067 C 
HETATM    8  C   UNL     1      13.042  -1.186 -16.853  1.00  0.00    -0.041 A 
HETATM    9  C   UNL     1      11.987  -0.359 -17.201  1.00  0.00     0.008 A 
HETATM   10  C   UNL     1      11.233  -0.661 -18.339  1.00  0.00     0.001 A 
HETATM   11  C   UNL     1      11.511  -1.790 -19.121  1.00  0.00     0.001 A 
HETATM   12  C   UNL     1      12.581  -2.616 -18.793  1.00  0.00     0.010 A 
HETATM   13  C   UNL     1      13.367  -2.302 -17.687  1.00  0.00    -0.026 A 
HETATM   14  C   UNL     1      14.625  -3.015 -17.207  1.00  0.00     0.086 C 
HETATM   15  C   UNL     1      15.734  -1.897 -17.131  1.00  0.00     0.121 C 
HETATM   16  C   UNL     1      15.423  -0.930 -15.965  1.00  0.00     0.107 C 
HETATM   17  C   UNL     1      15.802   0.424 -16.442  1.00  0.00     0.237 C 
HETATM   18  O   UNL     1      15.862   1.401 -15.706  1.00  0.00    -0.272 OA
HETATM   19  N   UNL     1      15.996   0.358 -17.795  1.00  0.00    -0.251 N 
HETATM   20  C   UNL     1      15.817  -0.915 -18.307  1.00  0.00     0.238 C 
HETATM   21  O   UNL     1      15.799  -1.235 -19.487  1.00  0.00    -0.272 OA
HETATM   22 BR   UNL     1      15.248  -4.455 -18.342  1.00  0.00    -0.074 Br
ENDROOT
BRANCH  19  23
HETATM   23  C   UNL     1      16.294   1.512 -18.560  1.00  0.00     0.061 A 
HETATM   24  C   UNL     1      15.252   2.401 -18.862  1.00  0.00     0.031 A 
HETATM   25  C   UNL     1      15.515   3.609 -19.516  1.00  0.00     0.002 A 
HETATM   26  C   UNL     1      16.815   3.927 -19.907  1.00  0.00     0.001 A 
HETATM   27  C   UNL     1      17.864   3.052 -19.618  1.00  0.00     0.020 A 
HETATM   28  C   UNL     1      17.618   1.854 -18.927  1.00  0.00     0.066 A 
BRANCH  28  29
HETATM   29  C   UNL     1      18.750   0.941 -18.588  1.00  0.00     0.296 C 
HETATM   30  O   UNL     1      19.131   0.020 -19.291  1.00  0.00    -0.259 OA
BRANCH  29  31
HETATM   31  O   UNL     1      19.190   1.197 -17.333  1.00  0.00    -0.310 OA
BRANCH  31  32
HETATM   32  C   UNL     1      20.105   0.221 -16.790  1.00  0.00     0.263 C 
BRANCH  32  33
HETATM   33  C   UNL     1      19.329  -0.454 -15.666  1.00  0.00     0.183 C 
HETATM   34  O   UNL     1      18.948   0.202 -14.690  1.00  0.00    -0.290 OA
BRANCH  33  35
HETATM   35  C   UNL     1      18.985  -1.911 -15.694  1.00  0.00     0.012 A 
HETATM   36  C   UNL     1      19.237  -2.789 -16.755  1.00  0.00     0.017 A 
HETATM   37  C   UNL     1      18.799  -4.128 -16.680  1.00  0.00     0.037 A 
HETATM   38  C   UNL     1      18.110  -4.581 -15.540  1.00  0.00     0.102 A 
HETATM   39  C   UNL     1      17.899  -3.728 -14.461  1.00  0.00     0.037 A 
HETATM   40  C   UNL     1      18.337  -2.409 -14.544  1.00  0.00     0.017 A 
BRANCH  38  41
HETATM   41  N   UNL     1      17.573  -5.946 -15.480  1.00  0.00    -0.116 N 
HETATM   42  O   UNL     1      17.380  -6.528 -16.557  1.00  0.00    -0.532 OA
HETATM   43  O   UNL     1      17.323  -6.428 -14.366  1.00  0.00    -0.532 OA
ENDBRANCH  38  41
ENDBRANCH  33  35
ENDBRANCH  32  33
ENDBRANCH  31  32
ENDBRANCH  29  31
ENDBRANCH  28  29
ENDBRANCH  19  23
TORSDOF 7
ENDMDL
MODEL 2
REMARK VINA RESULT:      -8.1      3.356      7.445
REMARK  7 active torsions:
REMARK  status: ('A' for Active; 'I' for Inactive)
REMARK    1  A    between atoms: N_19  and  C_20 
REMARK    2  A    between atoms: C_25  and  C_26 
REMARK    3  A    between atoms: C_26  and  O_28 
REMARK    4  A    between atoms: O_28  and  C_29 
REMARK    5  A    between atoms: C_29  and  C_30 
REMARK    6  A    between atoms: C_30  and  C_32 
REMARK    7  A    between atoms: C_35  and  N_38 
ROOT
HETATM    1  C   UNL     1      18.182  -0.750 -20.045  1.00  0.00     0.001 C 
HETATM    2  C   UNL     1      17.270   0.038 -19.332  1.00  0.00     0.001 C 
HETATM    3  C   UNL     1      16.015  -0.465 -18.959  1.00  0.00     0.010 C 
HETATM    4  C   UNL     1      15.669  -1.768 -19.305  1.00  0.00    -0.026 C 
HETATM    5  C   UNL     1      16.556  -2.498 -20.154  1.00  0.00    -0.041 C 
HETATM    6  C   UNL     1      17.822  -2.022 -20.476  1.00  0.00     0.008 C 
HETATM    7  C   UNL     1      16.027  -3.876 -20.557  1.00  0.00     0.067 C 
HETATM    8  C   UNL     1      14.595  -3.679 -21.118  1.00  0.00    -0.041 A 
HETATM    9  C   UNL     1      14.122  -4.158 -22.329  1.00  0.00     0.008 A 
HETATM   10  C   UNL     1      12.821  -3.838 -22.726  1.00  0.00     0.001 A 
HETATM   11  C   UNL     1      11.995  -3.029 -21.934  1.00  0.00     0.001 A 
HETATM   12  C   UNL     1      12.452  -2.559 -20.707  1.00  0.00     0.010 A 
HETATM   13  C   UNL     1      13.731  -2.908 -20.280  1.00  0.00    -0.026 A 
HETATM   14  C   UNL     1      14.388  -2.577 -18.946  1.00  0.00     0.086 C 
HETATM   15  C   UNL     1      14.831  -3.967 -18.345  1.00  0.00     0.121 C 
HETATM   16  C   UNL     1      16.003  -4.544 -19.170  1.00  0.00     0.107 C 
HETATM   17  C   UNL     1      15.778  -6.011 -19.234  1.00  0.00     0.237 C 
HETATM   18  O   UNL     1      16.616  -6.800 -19.653  1.00  0.00    -0.272 OA
HETATM   19  N   UNL     1      14.501  -6.262 -18.811  1.00  0.00    -0.251 N 
HETATM   20  C   UNL     1      13.821  -5.119 -18.431  1.00  0.00     0.238 C 
HETATM   21  O   UNL     1      12.637  -5.033 -18.139  1.00  0.00    -0.272 OA
HETATM   22 BR   UNL     1      13.260  -1.660 -17.667  1.00  0.00    -0.074 Br
ENDROOT
BRANCH  19  23
HETATM   23  C   UNL     1      13.956  -7.569 -18.830  1.00  0.00     0.061 A 
HETATM   24  C   UNL     1      13.147  -7.939 -19.914  1.00  0.00     0.031 A 
HETATM   25  C   UNL     1      12.679  -9.252 -20.035  1.00  0.00     0.002 A 
HETATM   26  C   UNL     1      12.983 -10.199 -19.058  1.00  0.00     0.001 A 
HETATM   27  C   UNL     1      13.784  -9.846 -17.971  1.00  0.00     0.020 A 
HETATM   28  C   UNL     1      14.293  -8.542 -17.858  1.00  0.00     0.066 A 
BRANCH  28  29
HETATM   29  C   UNL     1      15.179  -8.181 -16.712  1.00  0.00     0.296 C 
HETATM   30  O   UNL     1      16.318  -8.592 -16.562  1.00  0.00    -0.259 OA
BRANCH  29  31
HETATM   31  O   UNL     1      14.486  -7.455 -15.803  1.00  0.00    -0.310 OA
BRANCH  31  32
HETATM   32  C   UNL     1      15.245  -6.432 -15.123  1.00  0.00     0.263 C 
BRANCH  32  33
HETATM   33  C   UNL     1      14.226  -5.349 -14.794  1.00  0.00     0.183 C 
HETATM   34  O   UNL     1      13.033  -5.638 -14.650  1.00  0.00    -0.290 OA
BRANCH  33  35
HETATM   35  C   UNL     1      14.613  -3.913 -14.618  1.00  0.00     0.012 A 
HETATM   36  C   UNL     1      13.767  -2.888 -14.176  1.00  0.00     0.017 A 
HETATM   37  C   UNL     1      14.241  -1.560 -14.119  1.00  0.00     0.037 A 
HETATM   38  C   UNL     1      15.562  -1.266 -14.504  1.00  0.00     0.102 A 
HETATM   39  C   UNL     1      16.423  -2.287 -14.897  1.00  0.00     0.037 A 
HETATM   40  C   UNL     1      15.946  -3.594 -14.948  1.00  0.00     0.017 A 
BRANCH  38  41
HETATM   41  N   UNL     1      16.045   0.119 -14.531  1.00  0.00    -0.116 N 
HETATM   42  O   UNL     1      17.056   0.382 -13.864  1.00  0.00    -0.532 OA
HETATM   43  O   UNL     1      15.408   0.948 -15.196  1.00  0.00    -0.532 OA
ENDBRANCH  38  41
ENDBRANCH  33  35
ENDBRANCH  32  33
ENDBRANCH  31  32
ENDBRANCH  29  31
ENDBRANCH  28  29
ENDBRANCH  19  23
TORSDOF 7
ENDMDL
MODEL 3
REMARK VINA RESULT:      -8.1      2.692      6.669
REMARK  7 active torsions:
REMARK  status: ('A' for Active; 'I' for Inactive)
REMARK    1  A    between atoms: N_19  and  C_20 
REMARK    2  A    between atoms: C_25  and  C_26 
REMARK    3  A    between atoms: C_26  and  O_28 
REMARK    4  A    between atoms: O_28  and  C_29 
REMARK    5  A    between atoms: C_29  and  C_30 
REMARK    6  A    between atoms: C_30  and  C_32 
REMARK    7  A    between atoms: C_35  and  N_38 
ROOT
HETATM    1  C   UNL     1      17.086   1.439 -19.022  1.00  0.00     0.001 C 
HETATM    2  C   UNL     1      15.829   1.801 -18.520  1.00  0.00     0.001 C 
HETATM    3  C   UNL     1      14.841   0.835 -18.275  1.00  0.00     0.010 C 
HETATM    4  C   UNL     1      15.114  -0.505 -18.538  1.00  0.00    -0.026 C 
HETATM    5  C   UNL     1      16.346  -0.828 -19.183  1.00  0.00    -0.041 C 
HETATM    6  C   UNL     1      17.346   0.120 -19.373  1.00  0.00     0.008 C 
HETATM    7  C   UNL     1      16.494  -2.314 -19.519  1.00  0.00     0.067 C 
HETATM    8  C   UNL     1      15.219  -2.746 -20.287  1.00  0.00    -0.041 A 
HETATM    9  C   UNL     1      15.186  -3.415 -21.499  1.00  0.00     0.008 A 
HETATM   10  C   UNL     1      13.951  -3.676 -22.099  1.00  0.00     0.001 A 
HETATM   11  C   UNL     1      12.750  -3.257 -21.510  1.00  0.00     0.001 A 
HETATM   12  C   UNL     1      12.770  -2.602 -20.283  1.00  0.00     0.010 A 
HETATM   13  C   UNL     1      13.991  -2.376 -19.653  1.00  0.00    -0.026 A 
HETATM   14  C   UNL     1      14.230  -1.760 -18.280  1.00  0.00     0.086 C 
HETATM   15  C   UNL     1      15.091  -2.821 -17.493  1.00  0.00     0.121 C 
HETATM   16  C   UNL     1      16.515  -2.887 -18.091  1.00  0.00     0.107 C 
HETATM   17  C   UNL     1      16.916  -4.316 -18.043  1.00  0.00     0.237 C 
HETATM   18  O   UNL     1      18.058  -4.700 -18.265  1.00  0.00    -0.272 OA
HETATM   19  N   UNL     1      15.799  -5.060 -17.776  1.00  0.00    -0.251 N 
HETATM   20  C   UNL     1      14.662  -4.290 -17.605  1.00  0.00     0.238 C 
HETATM   21  O   UNL     1      13.514  -4.694 -17.487  1.00  0.00    -0.272 OA
HETATM   22 BR   UNL     1      12.634  -1.353 -17.263  1.00  0.00    -0.074 Br
ENDROOT
BRANCH  19  23
HETATM   23  C   UNL     1      15.840  -6.476 -17.742  1.00  0.00     0.061 A 
HETATM   24  C   UNL     1      15.590  -7.179 -18.930  1.00  0.00     0.031 A 
HETATM   25  C   UNL     1      15.730  -8.570 -18.975  1.00  0.00     0.002 A 
HETATM   26  C   UNL     1      16.086  -9.277 -17.827  1.00  0.00     0.001 A 
HETATM   27  C   UNL     1      16.335  -8.593 -16.636  1.00  0.00     0.020 A 
HETATM   28  C   UNL     1      16.236  -7.192 -16.588  1.00  0.00     0.066 A 
BRANCH  28  29
HETATM   29  C   UNL     1      16.541  -6.465 -15.320  1.00  0.00     0.296 C 
HETATM   30  O   UNL     1      17.661  -6.308 -14.864  1.00  0.00    -0.259 OA
BRANCH  29  31
HETATM   31  O   UNL     1      15.388  -6.135 -14.690  1.00  0.00    -0.310 OA
BRANCH  31  32
HETATM   32  C   UNL     1      15.541  -5.284 -13.534  1.00  0.00     0.263 C 
BRANCH  32  33
HETATM   33  C   UNL     1      14.775  -4.014 -13.884  1.00  0.00     0.183 C 
HETATM   34  O   UNL     1      13.539  -4.011 -13.882  1.00  0.00    -0.290 OA
BRANCH  33  35
HETATM   35  C   UNL     1      15.467  -2.731 -14.227  1.00  0.00     0.012 A 
HETATM   36  C   UNL     1      14.852  -1.479 -14.345  1.00  0.00     0.017 A 
HETATM   37  C   UNL     1      15.611  -0.357 -14.741  1.00  0.00     0.037 A 
HETATM   38  C   UNL     1      16.984  -0.496 -15.018  1.00  0.00     0.102 A 
HETATM   39  C   UNL     1      17.611  -1.727 -14.855  1.00  0.00     0.037 A 
HETATM   40  C   UNL     1      16.855  -2.828 -14.461  1.00  0.00     0.017 A 
BRANCH  38  41
HETATM   41  N   UNL     1      17.769   0.641 -15.513  1.00  0.00    -0.116 N 
HETATM   42  O   UNL     1      18.842   0.387 -16.077  1.00  0.00    -0.532 OA
HETATM   43  O   UNL     1      17.330   1.783 -15.319  1.00  0.00    -0.532 OA
ENDBRANCH  38  41
ENDBRANCH  33  35
ENDBRANCH  32  33
ENDBRANCH  31  32
ENDBRANCH  29  31
ENDBRANCH  28  29
ENDBRANCH  19  23
TORSDOF 7
ENDMDL
MODEL 4
REMARK VINA RESULT:      -8.1      3.520      7.274
REMARK  7 active torsions:
REMARK  status: ('A' for Active; 'I' for Inactive)
REMARK    1  A    between atoms: N_19  and  C_20 
REMARK    2  A    between atoms: C_25  and  C_26 
REMARK    3  A    between atoms: C_26  and  O_28 
REMARK    4  A    between atoms: O_28  and  C_29 
REMARK    5  A    between atoms: C_29  and  C_30 
REMARK    6  A    between atoms: C_30  and  C_32 
REMARK    7  A    between atoms: C_35  and  N_38 
ROOT
HETATM    1  C   UNL     1      13.786  -4.822 -24.288  1.00  0.00     0.001 C 
HETATM    2  C   UNL     1      14.261  -6.134 -24.413  1.00  0.00     0.001 C 
HETATM    3  C   UNL     1      14.800  -6.818 -23.313  1.00  0.00     0.010 C 
HETATM    4  C   UNL     1      14.867  -6.180 -22.077  1.00  0.00    -0.026 C 
HETATM    5  C   UNL     1      14.513  -4.798 -22.011  1.00  0.00    -0.041 C 
HETATM    6  C   UNL     1      13.925  -4.139 -23.086  1.00  0.00     0.008 C 
HETATM    7  C   UNL     1      14.726  -4.174 -20.631  1.00  0.00     0.067 C 
HETATM    8  C   UNL     1      16.176  -4.501 -20.191  1.00  0.00    -0.041 A 
HETATM    9  C   UNL     1      17.114  -3.588 -19.737  1.00  0.00     0.008 A 
HETATM   10  C   UNL     1      18.407  -4.031 -19.442  1.00  0.00     0.001 A 
HETATM   11  C   UNL     1      18.776  -5.372 -19.614  1.00  0.00     0.001 A 
HETATM   12  C   UNL     1      17.836  -6.301 -20.051  1.00  0.00     0.010 A 
HETATM   13  C   UNL     1      16.534  -5.881 -20.306  1.00  0.00    -0.026 A 
HETATM   14  C   UNL     1      15.340  -6.740 -20.704  1.00  0.00     0.086 C 
HETATM   15  C   UNL     1      14.227  -6.428 -19.631  1.00  0.00     0.121 C 
HETATM   16  C   UNL     1      13.695  -4.991 -19.831  1.00  0.00     0.107 C 
HETATM   17  C   UNL     1      13.453  -4.449 -18.469  1.00  0.00     0.237 C 
HETATM   18  O   UNL     1      12.854  -3.400 -18.262  1.00  0.00    -0.272 OA
HETATM   19  N   UNL     1      14.054  -5.284 -17.568  1.00  0.00    -0.251 N 
HETATM   20  C   UNL     1      14.669  -6.372 -18.162  1.00  0.00     0.238 C 
HETATM   21  O   UNL     1      15.384  -7.199 -17.616  1.00  0.00    -0.272 OA
HETATM   22 BR   UNL     1      15.667  -8.648 -20.747  1.00  0.00    -0.074 Br
ENDROOT
BRANCH  19  23
HETATM   23  C   UNL     1      14.067  -4.996 -16.181  1.00  0.00     0.061 A 
HETATM   24  C   UNL     1      12.935  -5.322 -15.421  1.00  0.00     0.031 A 
HETATM   25  C   UNL     1      12.942  -5.161 -14.031  1.00  0.00     0.002 A 
HETATM   26  C   UNL     1      14.065  -4.641 -13.390  1.00  0.00     0.001 A 
HETATM   27  C   UNL     1      15.200  -4.308 -14.132  1.00  0.00     0.020 A 
HETATM   28  C   UNL     1      15.219  -4.502 -15.524  1.00  0.00     0.066 A 
BRANCH  28  29
HETATM   29  C   UNL     1      16.449  -4.178 -16.306  1.00  0.00     0.296 C 
HETATM   30  O   UNL     1      17.407  -4.923 -16.428  1.00  0.00    -0.259 OA
BRANCH  29  31
HETATM   31  O   UNL     1      16.400  -2.894 -16.732  1.00  0.00    -0.310 OA
BRANCH  31  32
HETATM   32  C   UNL     1      17.172  -1.956 -15.952  1.00  0.00     0.263 C 
BRANCH  32  33
HETATM   33  C   UNL     1      16.139  -1.008 -15.354  1.00  0.00     0.183 C 
HETATM   34  O   UNL     1      16.342  -0.477 -14.256  1.00  0.00    -0.290 OA
BRANCH  33  35
HETATM   35  C   UNL     1      14.862  -0.669 -16.058  1.00  0.00     0.012 A 
HETATM   36  C   UNL     1      13.582  -1.086 -15.670  1.00  0.00     0.017 A 
HETATM   37  C   UNL     1      12.464  -0.751 -16.463  1.00  0.00     0.037 A 
HETATM   38  C   UNL     1      12.634   0.000 -17.641  1.00  0.00     0.102 A 
HETATM   39  C   UNL     1      13.896   0.458 -18.005  1.00  0.00     0.037 A 
HETATM   40  C   UNL     1      14.993   0.125 -17.216  1.00  0.00     0.017 A 
BRANCH  38  41
HETATM   41  N   UNL     1      11.495   0.284 -18.522  1.00  0.00    -0.116 N 
HETATM   42  O   UNL     1      11.265  -0.524 -19.432  1.00  0.00    -0.532 OA
HETATM   43  O   UNL     1      10.845   1.321 -18.322  1.00  0.00    -0.532 OA
ENDBRANCH  38  41
ENDBRANCH  33  35
ENDBRANCH  32  33
ENDBRANCH  31  32
ENDBRANCH  29  31
ENDBRANCH  28  29
ENDBRANCH  19  23
TORSDOF 7
ENDMDL
MODEL 5
REMARK VINA RESULT:      -8.1      1.499      1.890
REMARK  7 active torsions:
REMARK  status: ('A' for Active; 'I' for Inactive)
REMARK    1  A    between atoms: N_19  and  C_20 
REMARK    2  A    between atoms: C_25  and  C_26 
REMARK    3  A    between atoms: C_26  and  O_28 
REMARK    4  A    between atoms: O_28  and  C_29 
REMARK    5  A    between atoms: C_29  and  C_30 
REMARK    6  A    between atoms: C_30  and  C_32 
REMARK    7  A    between atoms: C_35  and  N_38 
ROOT
HETATM    1  C   UNL     1      13.578  -4.615 -13.557  1.00  0.00     0.001 C 
HETATM    2  C   UNL     1      13.304  -5.619 -14.495  1.00  0.00     0.001 C 
HETATM    3  C   UNL     1      13.397  -5.367 -15.872  1.00  0.00     0.010 C 
HETATM    4  C   UNL     1      13.764  -4.098 -16.313  1.00  0.00    -0.026 C 
HETATM    5  C   UNL     1      13.894  -3.059 -15.343  1.00  0.00    -0.041 C 
HETATM    6  C   UNL     1      13.859  -3.321 -13.978  1.00  0.00     0.008 C 
HETATM    7  C   UNL     1      14.195  -1.686 -15.948  1.00  0.00     0.067 C 
HETATM    8  C   UNL     1      13.139  -1.424 -17.052  1.00  0.00    -0.041 A 
HETATM    9  C   UNL     1      12.354  -0.289 -17.175  1.00  0.00     0.008 A 
HETATM   10  C   UNL     1      11.396  -0.231 -18.191  1.00  0.00     0.001 A 
HETATM   11  C   UNL     1      11.201  -1.303 -19.072  1.00  0.00     0.001 A 
HETATM   12  C   UNL     1      11.996  -2.440 -18.971  1.00  0.00     0.010 A 
HETATM   13  C   UNL     1      12.985  -2.492 -17.991  1.00  0.00    -0.026 A 
HETATM   14  C   UNL     1      14.013  -3.593 -17.765  1.00  0.00     0.086 C 
HETATM   15  C   UNL     1      15.413  -2.869 -17.805  1.00  0.00     0.121 C 
HETATM   16  C   UNL     1      15.580  -1.982 -16.550  1.00  0.00     0.107 C 
HETATM   17  C   UNL     1      16.291  -0.759 -17.003  1.00  0.00     0.237 C 
HETATM   18  O   UNL     1      16.751   0.074 -16.230  1.00  0.00    -0.272 OA
HETATM   19  N   UNL     1      16.268  -0.737 -18.371  1.00  0.00    -0.251 N 
HETATM   20  C   UNL     1      15.635  -1.838 -18.920  1.00  0.00     0.238 C 
HETATM   21  O   UNL     1      15.357  -2.012 -20.097  1.00  0.00    -0.272 OA
HETATM   22 BR   UNL     1      13.998  -5.025 -19.067  1.00  0.00    -0.074 Br
ENDROOT
BRANCH  19  23
HETATM   23  C   UNL     1      16.801   0.350 -19.106  1.00  0.00     0.061 A 
HETATM   24  C   UNL     1      16.072   1.547 -19.150  1.00  0.00     0.031 A 
HETATM   25  C   UNL     1      16.608   2.683 -19.766  1.00  0.00     0.002 A 
HETATM   26  C   UNL     1      17.861   2.627 -20.375  1.00  0.00     0.001 A 
HETATM   27  C   UNL     1      18.599   1.442 -20.342  1.00  0.00     0.020 A 
HETATM   28  C   UNL     1      18.088   0.306 -19.692  1.00  0.00     0.066 A 
BRANCH  28  29
HETATM   29  C   UNL     1      18.899  -0.947 -19.629  1.00  0.00     0.296 C 
HETATM   30  O   UNL     1      18.854  -1.842 -20.455  1.00  0.00    -0.259 OA
BRANCH  29  31
HETATM   31  O   UNL     1      19.575  -1.000 -18.457  1.00  0.00    -0.310 OA
BRANCH  31  32
HETATM   32  C   UNL     1      20.197  -2.269 -18.162  1.00  0.00     0.263 C 
BRANCH  32  33
HETATM   33  C   UNL     1      19.379  -2.844 -17.013  1.00  0.00     0.183 C 
HETATM   34  O   UNL     1      19.329  -2.255 -15.927  1.00  0.00    -0.290 OA
BRANCH  33  35
HETATM   35  C   UNL     1      18.600  -4.116 -17.143  1.00  0.00     0.012 A 
HETATM   36  C   UNL     1      18.339  -4.795 -18.340  1.00  0.00     0.017 A 
HETATM   37  C   UNL     1      17.531  -5.951 -18.331  1.00  0.00     0.037 A 
HETATM   38  C   UNL     1      16.988  -6.423 -17.122  1.00  0.00     0.102 A 
HETATM   39  C   UNL     1      17.283  -5.782 -15.922  1.00  0.00     0.037 A 
HETATM   40  C   UNL     1      18.083  -4.643 -15.941  1.00  0.00     0.017 A 
BRANCH  38  41
HETATM   41  N   UNL     1      16.077  -7.574 -17.106  1.00  0.00    -0.116 N 
HETATM   42  O   UNL     1      15.722  -8.001 -15.999  1.00  0.00    -0.532 OA
HETATM   43  O   UNL     1      15.736  -8.065 -18.191  1.00  0.00    -0.532 OA
ENDBRANCH  38  41
ENDBRANCH  33  35
ENDBRANCH  32  33
ENDBRANCH  31  32
ENDBRANCH  29  31
ENDBRANCH  28  29
ENDBRANCH  19  23
TORSDOF 7
ENDMDL
MODEL 6
REMARK VINA RESULT:      -8.0      1.470      2.058
REMARK  7 active torsions:
REMARK  status: ('A' for Active; 'I' for Inactive)
REMARK    1  A    between atoms: N_19  and  C_20 
REMARK    2  A    between atoms: C_25  and  C_26 
REMARK    3  A    between atoms: C_26  and  O_28 
REMARK    4  A    between atoms: O_28  and  C_29 
REMARK    5  A    between atoms: C_29  and  C_30 
REMARK    6  A    between atoms: C_30  and  C_32 
REMARK    7  A    between atoms: C_35  and  N_38 
ROOT
HETATM    1  C   UNL     1      13.614  -6.054 -14.818  1.00  0.00     0.001 C 
HETATM    2  C   UNL     1      13.721  -6.549 -16.124  1.00  0.00     0.001 C 
HETATM    3  C   UNL     1      14.015  -5.698 -17.200  1.00  0.00     0.010 C 
HETATM    4  C   UNL     1      14.200  -4.338 -16.966  1.00  0.00    -0.026 C 
HETATM    5  C   UNL     1      13.943  -3.839 -15.653  1.00  0.00    -0.041 C 
HETATM    6  C   UNL     1      13.708  -4.688 -14.577  1.00  0.00     0.008 C 
HETATM    7  C   UNL     1      14.074  -2.319 -15.537  1.00  0.00     0.067 C 
HETATM    8  C   UNL     1      13.209  -1.690 -16.659  1.00  0.00    -0.041 A 
HETATM    9  C   UNL     1      12.253  -0.701 -16.493  1.00  0.00     0.008 A 
HETATM   10  C   UNL     1      11.506  -0.284 -17.599  1.00  0.00     0.001 A 
HETATM   11  C   UNL     1      11.692  -0.859 -18.863  1.00  0.00     0.001 A 
HETATM   12  C   UNL     1      12.663  -1.839 -19.046  1.00  0.00     0.010 A 
HETATM   13  C   UNL     1      13.444  -2.231 -17.962  1.00  0.00    -0.026 A 
HETATM   14  C   UNL     1      14.608  -3.213 -17.962  1.00  0.00     0.086 C 
HETATM   15  C   UNL     1      15.822  -2.419 -17.343  1.00  0.00     0.121 C 
HETATM   16  C   UNL     1      15.577  -2.179 -15.836  1.00  0.00     0.107 C 
HETATM   17  C   UNL     1      16.105  -0.822 -15.545  1.00  0.00     0.237 C 
HETATM   18  O   UNL     1      16.242  -0.386 -14.408  1.00  0.00    -0.272 OA
HETATM   19  N   UNL     1      16.331  -0.190 -16.737  1.00  0.00    -0.251 N 
HETATM   20  C   UNL     1      16.039  -0.981 -17.834  1.00  0.00     0.238 C 
HETATM   21  O   UNL     1      16.023  -0.634 -19.006  1.00  0.00    -0.272 OA
HETATM   22 BR   UNL     1      15.115  -3.902 -19.699  1.00  0.00    -0.074 Br
ENDROOT
BRANCH  19  23
HETATM   23  C   UNL     1      16.766   1.157 -16.794  1.00  0.00     0.061 A 
HETATM   24  C   UNL     1      15.798   2.169 -16.867  1.00  0.00     0.031 A 
HETATM   25  C   UNL     1      16.173   3.515 -16.811  1.00  0.00     0.002 A 
HETATM   26  C   UNL     1      17.519   3.867 -16.717  1.00  0.00     0.001 A 
HETATM   27  C   UNL     1      18.495   2.872 -16.646  1.00  0.00     0.020 A 
HETATM   28  C   UNL     1      18.129   1.516 -16.661  1.00  0.00     0.066 A 
BRANCH  28  29
HETATM   29  C   UNL     1      19.176   0.457 -16.548  1.00  0.00     0.296 C 
HETATM   30  O   UNL     1      19.737   0.147 -15.510  1.00  0.00    -0.259 OA
BRANCH  29  31
HETATM   31  O   UNL     1      19.506   0.001 -17.779  1.00  0.00    -0.310 OA
BRANCH  31  32
HETATM   32  C   UNL     1      20.433  -1.107 -17.798  1.00  0.00     0.263 C 
BRANCH  32  33
HETATM   33  C   UNL     1      19.657  -2.250 -18.439  1.00  0.00     0.183 C 
HETATM   34  O   UNL     1      19.489  -2.280 -19.664  1.00  0.00    -0.290 OA
BRANCH  33  35
HETATM   35  C   UNL     1      19.083  -3.377 -17.638  1.00  0.00     0.012 A 
HETATM   36  C   UNL     1      18.434  -4.503 -18.161  1.00  0.00     0.017 A 
HETATM   37  C   UNL     1      17.878  -5.463 -17.289  1.00  0.00     0.037 A 
HETATM   38  C   UNL     1      17.973  -5.288 -15.895  1.00  0.00     0.102 A 
HETATM   39  C   UNL     1      18.659  -4.197 -15.370  1.00  0.00     0.037 A 
HETATM   40  C   UNL     1      19.206  -3.257 -16.238  1.00  0.00     0.017 A 
BRANCH  38  41
HETATM   41  N   UNL     1      17.327  -6.231 -14.975  1.00  0.00    -0.116 N 
HETATM   42  O   UNL     1      17.090  -7.370 -15.402  1.00  0.00    -0.532 OA
HETATM   43  O   UNL     1      17.035  -5.833 -13.839  1.00  0.00    -0.532 OA
ENDBRANCH  38  41
ENDBRANCH  33  35
ENDBRANCH  32  33
ENDBRANCH  31  32
ENDBRANCH  29  31
ENDBRANCH  28  29
ENDBRANCH  19  23
TORSDOF 7
ENDMDL
MODEL 7
REMARK VINA RESULT:      -7.7      3.413      6.046
REMARK  7 active torsions:
REMARK  status: ('A' for Active; 'I' for Inactive)
REMARK    1  A    between atoms: N_19  and  C_20 
REMARK    2  A    between atoms: C_25  and  C_26 
REMARK    3  A    between atoms: C_26  and  O_28 
REMARK    4  A    between atoms: O_28  and  C_29 
REMARK    5  A    between atoms: C_29  and  C_30 
REMARK    6  A    between atoms: C_30  and  C_32 
REMARK    7  A    between atoms: C_35  and  N_38 
ROOT
HETATM    1  C   UNL     1       7.320  -4.101 -21.347  1.00  0.00     0.001 C 
HETATM    2  C   UNL     1       7.402  -5.450 -20.977  1.00  0.00     0.001 C 
HETATM    3  C   UNL     1       8.616  -6.012 -20.555  1.00  0.00     0.010 C 
HETATM    4  C   UNL     1       9.758  -5.217 -20.505  1.00  0.00    -0.026 C 
HETATM    5  C   UNL     1       9.678  -3.889 -21.024  1.00  0.00    -0.041 C 
HETATM    6  C   UNL     1       8.465  -3.315 -21.388  1.00  0.00     0.008 C 
HETATM    7  C   UNL     1      11.015  -3.145 -21.018  1.00  0.00     0.067 C 
HETATM    8  C   UNL     1      12.059  -4.058 -21.710  1.00  0.00    -0.041 A 
HETATM    9  C   UNL     1      12.904  -3.690 -22.744  1.00  0.00     0.008 A 
HETATM   10  C   UNL     1      13.747  -4.652 -23.310  1.00  0.00     0.001 A 
HETATM   11  C   UNL     1      13.739  -5.980 -22.865  1.00  0.00     0.001 A 
HETATM   12  C   UNL     1      12.909  -6.357 -21.814  1.00  0.00     0.010 A 
HETATM   13  C   UNL     1      12.097  -5.398 -21.212  1.00  0.00    -0.026 A 
HETATM   14  C   UNL     1      11.188  -5.575 -20.003  1.00  0.00     0.086 C 
HETATM   15  C   UNL     1      11.644  -4.471 -18.974  1.00  0.00     0.121 C 
HETATM   16  C   UNL     1      11.248  -3.072 -19.498  1.00  0.00     0.107 C 
HETATM   17  C   UNL     1      12.360  -2.162 -19.123  1.00  0.00     0.237 C 
HETATM   18  O   UNL     1      12.289  -0.942 -19.219  1.00  0.00    -0.272 OA
HETATM   19  N   UNL     1      13.422  -2.930 -18.732  1.00  0.00    -0.251 N 
HETATM   20  C   UNL     1      13.154  -4.287 -18.771  1.00  0.00     0.238 C 
HETATM   21  O   UNL     1      13.952  -5.197 -18.602  1.00  0.00    -0.272 OA
HETATM   22 BR   UNL     1      11.267  -7.312 -19.151  1.00  0.00    -0.074 Br
ENDROOT
BRANCH  19  23
HETATM   23  C   UNL     1      14.668  -2.353 -18.385  1.00  0.00     0.061 A 
HETATM   24  C   UNL     1      15.608  -2.131 -19.402  1.00  0.00     0.031 A 
HETATM   25  C   UNL     1      16.805  -1.462 -19.129  1.00  0.00     0.002 A 
HETATM   26  C   UNL     1      17.094  -1.038 -17.832  1.00  0.00     0.001 A 
HETATM   27  C   UNL     1      16.171  -1.254 -16.807  1.00  0.00     0.020 A 
HETATM   28  C   UNL     1      14.948  -1.890 -17.077  1.00  0.00     0.066 A 
BRANCH  28  29
HETATM   29  C   UNL     1      13.949  -2.084 -15.983  1.00  0.00     0.296 C 
HETATM   30  O   UNL     1      13.200  -1.216 -15.568  1.00  0.00    -0.259 OA
BRANCH  29  31
HETATM   31  O   UNL     1      14.102  -3.311 -15.432  1.00  0.00    -0.310 OA
BRANCH  31  32
HETATM   32  C   UNL     1      14.902  -3.352 -14.230  1.00  0.00     0.263 C 
BRANCH  32  33
HETATM   33  C   UNL     1      14.984  -4.830 -13.869  1.00  0.00     0.183 C 
HETATM   34  O   UNL     1      14.895  -5.189 -12.689  1.00  0.00    -0.290 OA
BRANCH  33  35
HETATM   35  C   UNL     1      15.158  -5.897 -14.904  1.00  0.00     0.012 A 
HETATM   36  C   UNL     1      14.201  -6.859 -15.253  1.00  0.00     0.017 A 
HETATM   37  C   UNL     1      14.518  -7.855 -16.201  1.00  0.00     0.037 A 
HETATM   38  C   UNL     1      15.795  -7.883 -16.794  1.00  0.00     0.102 A 
HETATM   39  C   UNL     1      16.733  -6.902 -16.487  1.00  0.00     0.037 A 
HETATM   40  C   UNL     1      16.410  -5.923 -15.553  1.00  0.00     0.017 A 
BRANCH  38  41
HETATM   41  N   UNL     1      16.170  -8.961 -17.716  1.00  0.00    -0.116 N 
HETATM   42  O   UNL     1      15.336  -9.294 -18.571  1.00  0.00    -0.532 OA
HETATM   43  O   UNL     1      17.281  -9.491 -17.576  1.00  0.00    -0.532 OA
ENDBRANCH  38  41
ENDBRANCH  33  35
ENDBRANCH  32  33
ENDBRANCH  31  32
ENDBRANCH  29  31
ENDBRANCH  28  29
ENDBRANCH  19  23
TORSDOF 7
ENDMDL
MODEL 8
REMARK VINA RESULT:      -7.7      4.756      8.550
REMARK  7 active torsions:
REMARK  status: ('A' for Active; 'I' for Inactive)
REMARK    1  A    between atoms: N_19  and  C_20 
REMARK    2  A    between atoms: C_25  and  C_26 
REMARK    3  A    between atoms: C_26  and  O_28 
REMARK    4  A    between atoms: O_28  and  C_29 
REMARK    5  A    between atoms: C_29  and  C_30 
REMARK    6  A    between atoms: C_30  and  C_32 
REMARK    7  A    between atoms: C_35  and  N_38 
ROOT
HETATM    1  C   UNL     1      13.487  -4.435 -23.865  1.00  0.00     0.001 C 
HETATM    2  C   UNL     1      12.193  -4.416 -23.327  1.00  0.00     0.001 C 
HETATM    3  C   UNL     1      11.860  -5.203 -22.214  1.00  0.00     0.010 C 
HETATM    4  C   UNL     1      12.830  -6.017 -21.636  1.00  0.00    -0.026 C 
HETATM    5  C   UNL     1      14.095  -6.127 -22.291  1.00  0.00    -0.041 C 
HETATM    6  C   UNL     1      14.443  -5.307 -23.358  1.00  0.00     0.008 C 
HETATM    7  C   UNL     1      15.044  -7.129 -21.630  1.00  0.00     0.067 C 
HETATM    8  C   UNL     1      14.272  -8.463 -21.466  1.00  0.00    -0.041 A 
HETATM    9  C   UNL     1      14.709  -9.713 -21.874  1.00  0.00     0.008 A 
HETATM   10  C   UNL     1      13.864 -10.815 -21.716  1.00  0.00     0.001 A 
HETATM   11  C   UNL     1      12.580 -10.678 -21.172  1.00  0.00     0.001 A 
HETATM   12  C   UNL     1      12.137  -9.431 -20.740  1.00  0.00     0.010 A 
HETATM   13  C   UNL     1      12.987  -8.333 -20.851  1.00  0.00    -0.026 A 
HETATM   14  C   UNL     1      12.737  -6.911 -20.365  1.00  0.00     0.086 C 
HETATM   15  C   UNL     1      13.960  -6.571 -19.429  1.00  0.00     0.121 C 
HETATM   16  C   UNL     1      15.243  -6.422 -20.277  1.00  0.00     0.107 C 
HETATM   17  C   UNL     1      16.341  -7.011 -19.469  1.00  0.00     0.237 C 
HETATM   18  O   UNL     1      17.526  -6.892 -19.760  1.00  0.00    -0.272 OA
HETATM   19  N   UNL     1      15.779  -7.714 -18.438  1.00  0.00    -0.251 N 
HETATM   20  C   UNL     1      14.397  -7.651 -18.430  1.00  0.00     0.238 C 
HETATM   21  O   UNL     1      13.638  -8.284 -17.710  1.00  0.00    -0.272 OA
HETATM   22 BR   UNL     1      11.089  -6.645 -19.384  1.00  0.00    -0.074 Br
ENDROOT
BRANCH  19  23
HETATM   23  C   UNL     1      16.568  -8.459 -17.529  1.00  0.00     0.061 A 
HETATM   24  C   UNL     1      17.099  -9.685 -17.956  1.00  0.00     0.031 A 
HETATM   25  C   UNL     1      17.976 -10.403 -17.136  1.00  0.00     0.002 A 
HETATM   26  C   UNL     1      18.306  -9.923 -15.869  1.00  0.00     0.001 A 
HETATM   27  C   UNL     1      17.784  -8.706 -15.428  1.00  0.00     0.020 A 
HETATM   28  C   UNL     1      16.933  -7.956 -16.258  1.00  0.00     0.066 A 
BRANCH  28  29
HETATM   29  C   UNL     1      16.409  -6.637 -15.793  1.00  0.00     0.296 C 
HETATM   30  O   UNL     1      15.328  -6.473 -15.254  1.00  0.00    -0.259 OA
BRANCH  29  31
HETATM   31  O   UNL     1      17.242  -5.645 -16.188  1.00  0.00    -0.310 OA
BRANCH  31  32
HETATM   32  C   UNL     1      16.679  -4.316 -16.149  1.00  0.00     0.263 C 
BRANCH  32  33
HETATM   33  C   UNL     1      16.638  -3.871 -17.605  1.00  0.00     0.183 C 
HETATM   34  O   UNL     1      17.680  -3.812 -18.269  1.00  0.00    -0.290 OA
BRANCH  33  35
HETATM   35  C   UNL     1      15.360  -3.504 -18.294  1.00  0.00     0.012 A 
HETATM   36  C   UNL     1      15.244  -3.074 -19.622  1.00  0.00     0.017 A 
HETATM   37  C   UNL     1      13.983  -2.693 -20.130  1.00  0.00     0.037 A 
HETATM   38  C   UNL     1      12.845  -2.746 -19.304  1.00  0.00     0.102 A 
HETATM   39  C   UNL     1      12.946  -3.219 -17.999  1.00  0.00     0.037 A 
HETATM   40  C   UNL     1      14.193  -3.594 -17.508  1.00  0.00     0.017 A 
BRANCH  38  41
HETATM   41  N   UNL     1      11.543  -2.274 -19.789  1.00  0.00    -0.116 N 
HETATM   42  O   UNL     1      10.611  -3.090 -19.799  1.00  0.00    -0.532 OA
HETATM   43  O   UNL     1      11.455  -1.101 -20.181  1.00  0.00    -0.532 OA
ENDBRANCH  38  41
ENDBRANCH  33  35
ENDBRANCH  32  33
ENDBRANCH  31  32
ENDBRANCH  29  31
ENDBRANCH  28  29
ENDBRANCH  19  23
TORSDOF 7
ENDMDL
MODEL 9
REMARK VINA RESULT:      -7.6      4.241      6.998
REMARK  7 active torsions:
REMARK  status: ('A' for Active; 'I' for Inactive)
REMARK    1  A    between atoms: N_19  and  C_20 
REMARK    2  A    between atoms: C_25  and  C_26 
REMARK    3  A    between atoms: C_26  and  O_28 
REMARK    4  A    between atoms: O_28  and  C_29 
REMARK    5  A    between atoms: C_29  and  C_30 
REMARK    6  A    between atoms: C_30  and  C_32 
REMARK    7  A    between atoms: C_35  and  N_38 
ROOT
HETATM    1  C   UNL     1      13.741  -5.163 -24.538  1.00  0.00     0.001 C 
HETATM    2  C   UNL     1      12.616  -4.334 -24.453  1.00  0.00     0.001 C 
HETATM    3  C   UNL     1      12.253  -3.727 -23.241  1.00  0.00     0.010 C 
HETATM    4  C   UNL     1      13.022  -3.957 -22.104  1.00  0.00    -0.026 C 
HETATM    5  C   UNL     1      14.074  -4.919 -22.184  1.00  0.00    -0.041 C 
HETATM    6  C   UNL     1      14.470  -5.475 -23.396  1.00  0.00     0.008 C 
HETATM    7  C   UNL     1      14.783  -5.169 -20.851  1.00  0.00     0.067 C 
HETATM    8  C   UNL     1      13.691  -5.478 -19.795  1.00  0.00    -0.041 A 
HETATM    9  C   UNL     1      13.670  -6.569 -18.941  1.00  0.00     0.008 A 
HETATM   10  C   UNL     1      12.577  -6.744 -18.088  1.00  0.00     0.001 A 
HETATM   11  C   UNL     1      11.496  -5.852 -18.094  1.00  0.00     0.001 A 
HETATM   12  C   UNL     1      11.515  -4.743 -18.933  1.00  0.00     0.010 A 
HETATM   13  C   UNL     1      12.619  -4.532 -19.756  1.00  0.00    -0.026 A 
HETATM   14  C   UNL     1      12.880  -3.348 -20.678  1.00  0.00     0.086 C 
HETATM   15  C   UNL     1      14.283  -2.780 -20.238  1.00  0.00     0.121 C 
HETATM   16  C   UNL     1      15.398  -3.774 -20.635  1.00  0.00     0.107 C 
HETATM   17  C   UNL     1      16.392  -3.741 -19.532  1.00  0.00     0.237 C 
HETATM   18  O   UNL     1      17.495  -4.269 -19.607  1.00  0.00    -0.272 OA
HETATM   19  N   UNL     1      15.823  -3.092 -18.470  1.00  0.00    -0.251 N 
HETATM   20  C   UNL     1      14.541  -2.644 -18.731  1.00  0.00     0.238 C 
HETATM   21  O   UNL     1      13.758  -2.153 -17.931  1.00  0.00    -0.272 OA
HETATM   22 BR   UNL     1      11.565  -1.929 -20.600  1.00  0.00    -0.074 Br
ENDROOT
BRANCH  19  23
HETATM   23  C   UNL     1      16.497  -2.964 -17.230  1.00  0.00     0.061 A 
HETATM   24  C   UNL     1      17.361  -1.874 -17.049  1.00  0.00     0.031 A 
HETATM   25  C   UNL     1      17.961  -1.642 -15.807  1.00  0.00     0.002 A 
HETATM   26  C   UNL     1      17.732  -2.513 -14.743  1.00  0.00     0.001 A 
HETATM   27  C   UNL     1      16.877  -3.604 -14.907  1.00  0.00     0.020 A 
HETATM   28  C   UNL     1      16.238  -3.826 -16.138  1.00  0.00     0.066 A 
BRANCH  28  29
HETATM   29  C   UNL     1      15.296  -4.974 -16.295  1.00  0.00     0.296 C 
HETATM   30  O   UNL     1      14.122  -4.956 -15.966  1.00  0.00    -0.259 OA
BRANCH  29  31
HETATM   31  O   UNL     1      15.971  -6.069 -16.719  1.00  0.00    -0.310 OA
BRANCH  31  32
HETATM   32  C   UNL     1      16.039  -7.156 -15.770  1.00  0.00     0.263 C 
BRANCH  32  33
HETATM   33  C   UNL     1      16.734  -8.284 -16.522  1.00  0.00     0.183 C 
HETATM   34  O   UNL     1      17.617  -8.950 -15.970  1.00  0.00    -0.290 OA
BRANCH  33  35
HETATM   35  C   UNL     1      16.380  -8.642 -17.932  1.00  0.00     0.012 A 
HETATM   36  C   UNL     1      16.994  -8.130 -19.083  1.00  0.00     0.017 A 
HETATM   37  C   UNL     1      16.517  -8.501 -20.358  1.00  0.00     0.037 A 
HETATM   38  C   UNL     1      15.427  -9.384 -20.474  1.00  0.00     0.102 A 
HETATM   39  C   UNL     1      14.844  -9.933 -19.337  1.00  0.00     0.037 A 
HETATM   40  C   UNL     1      15.323  -9.563 -18.083  1.00  0.00     0.017 A 
BRANCH  38  41
HETATM   41  N   UNL     1      14.865  -9.713 -21.789  1.00  0.00    -0.116 N 
HETATM   42  O   UNL     1      15.114  -8.938 -22.723  1.00  0.00    -0.532 OA
HETATM   43  O   UNL     1      14.159 -10.727 -21.887  1.00  0.00    -0.532 OA
ENDBRANCH  38  41
ENDBRANCH  33  35
ENDBRANCH  32  33
ENDBRANCH  31  32
ENDBRANCH  29  31
ENDBRANCH  28  29
ENDBRANCH  19  23
TORSDOF 7
ENDMDL
