MODEL 1
REMARK VINA RESULT:     -10.1      0.000      0.000
REMARK  7 active torsions:
REMARK  status: ('A' for Active; 'I' for Inactive)
REMARK    1  A    between atoms: C_4  and  C_7 
REMARK    2  A    between atoms: C_10  and  C_13 
REMARK    3  A    between atoms: C_13  and  C_15 
REMARK    4  A    between atoms: C_15  and  O_16 
REMARK    5  A    between atoms: O_16  and  C_17 
REMARK    6  A    between atoms: C_17  and  C_19 
REMARK    7  A    between atoms: C_23  and  N_25 
ROOT
HETATM    1  C   UNL     1      22.286  -2.222 -22.270  1.00  0.00     0.000 A 
HETATM    2  C   UNL     1      22.406  -2.591 -20.935  1.00  0.00     0.001 A 
HETATM    3  C   UNL     1      21.423  -2.217 -20.012  1.00  0.00     0.012 A 
HETATM    4  C   UNL     1      20.299  -1.459 -20.395  1.00  0.00    -0.026 A 
HETATM    5  C   UNL     1      20.223  -1.074 -21.747  1.00  0.00     0.012 A 
HETATM    6  C   UNL     1      21.197  -1.459 -22.676  1.00  0.00     0.001 A 
ENDROOT
BRANCH   4   7
HETATM    7  C   UNL     1      19.218  -1.149 -19.425  1.00  0.00    -0.026 A 
HETATM    8  C   UNL     1      19.337  -1.446 -18.056  1.00  0.00     0.013 A 
HETATM    9  C   UNL     1      18.264  -1.275 -17.169  1.00  0.00     0.016 A 
HETATM   10  C   UNL     1      17.040  -0.778 -17.625  1.00  0.00     0.012 A 
HETATM   11  C   UNL     1      16.919  -0.420 -18.969  1.00  0.00     0.016 A 
HETATM   12  C   UNL     1      17.992  -0.607 -19.851  1.00  0.00     0.013 A 
BRANCH  10  13
HETATM   13  C   UNL     1      15.894  -0.683 -16.668  1.00  0.00     0.183 C 
HETATM   14  O   UNL     1      14.750  -0.569 -17.107  1.00  0.00    -0.290 OA
BRANCH  13  15
HETATM   15  C   UNL     1      16.211  -0.695 -15.178  1.00  0.00     0.263 C 
BRANCH  15  16
HETATM   16  O   UNL     1      15.498  -1.717 -14.486  1.00  0.00    -0.310 OA
BRANCH  16  17
HETATM   17  C   UNL     1      16.005  -2.966 -14.564  1.00  0.00     0.293 C 
HETATM   18  O   UNL     1      17.154  -3.304 -14.333  1.00  0.00    -0.259 OA
BRANCH  17  19
HETATM   19  C   UNL     1      14.939  -3.900 -14.998  1.00  0.00     0.041 A 
HETATM   20  C   UNL     1      14.073  -4.410 -14.028  1.00  0.00     0.018 A 
HETATM   21  C   UNL     1      13.073  -5.295 -14.408  1.00  0.00     0.003 A 
HETATM   22  C   UNL     1      12.948  -5.664 -15.755  1.00  0.00     0.030 A 
HETATM   23  C   UNL     1      13.812  -5.177 -16.755  1.00  0.00     0.046 A 
HETATM   24  C   UNL     1      14.793  -4.270 -16.352  1.00  0.00     0.048 A 
BRANCH  23  25
HETATM   25  N   UNL     1      13.668  -5.583 -18.128  1.00  0.00    -0.252 N 
HETATM   26  C   UNL     1      12.956  -4.852 -19.047  1.00  0.00     0.237 C 
HETATM   27  O   UNL     1      12.179  -3.923 -18.880  1.00  0.00    -0.272 OA
HETATM   28  C   UNL     1      13.239  -5.379 -20.403  1.00  0.00     0.107 C 
HETATM   29  C   UNL     1      14.314  -4.529 -21.122  1.00  0.00     0.067 C 
HETATM   30  C   UNL     1      13.753  -6.808 -20.182  1.00  0.00     0.121 C 
HETATM   31  C   UNL     1      14.244  -5.094 -22.534  1.00  0.00    -0.041 A 
HETATM   32  C   UNL     1      15.716  -4.872 -20.586  1.00  0.00    -0.041 A 
HETATM   33  C   UNL     1      13.961  -4.330 -23.662  1.00  0.00     0.008 A 
HETATM   34  C   UNL     1      14.520  -6.494 -22.604  1.00  0.00    -0.026 A 
HETATM   35  C   UNL     1      13.972  -4.955 -24.903  1.00  0.00     0.001 A 
HETATM   36  C   UNL     1      14.261  -6.322 -25.000  1.00  0.00     0.001 A 
HETATM   37  C   UNL     1      14.532  -7.095 -23.859  1.00  0.00     0.010 A 
HETATM   38  C   UNL     1      14.902  -7.097 -21.217  1.00  0.00     0.086 C 
HETATM   39  C   UNL     1      16.076  -6.250 -20.711  1.00  0.00    -0.026 A 
HETATM   40 BR   UNL     1      15.232  -9.004 -21.301  1.00  0.00    -0.074 Br
HETATM   41  C   UNL     1      17.323  -6.693 -20.284  1.00  0.00     0.010 A 
HETATM   42  C   UNL     1      18.182  -5.781 -19.674  1.00  0.00     0.001 A 
HETATM   43  C   UNL     1      17.812  -4.443 -19.512  1.00  0.00     0.001 A 
HETATM   44  C   UNL     1      16.582  -3.974 -19.979  1.00  0.00     0.008 A 
HETATM   45  C   UNL     1      14.182  -6.742 -18.707  1.00  0.00     0.238 C 
HETATM   46  O   UNL     1      14.862  -7.612 -18.180  1.00  0.00    -0.272 OA
ENDBRANCH  23  25
ENDBRANCH  17  19
ENDBRANCH  16  17
ENDBRANCH  15  16
ENDBRANCH  13  15
ENDBRANCH  10  13
ENDBRANCH   4   7
TORSDOF 7
ENDMDL
MODEL 2
REMARK VINA RESULT:     -10.0      3.440      7.140
REMARK  7 active torsions:
REMARK  status: ('A' for Active; 'I' for Inactive)
REMARK    1  A    between atoms: C_4  and  C_7 
REMARK    2  A    between atoms: C_10  and  C_13 
REMARK    3  A    between atoms: C_13  and  C_15 
REMARK    4  A    between atoms: C_15  and  O_16 
REMARK    5  A    between atoms: O_16  and  C_17 
REMARK    6  A    between atoms: C_17  and  C_19 
REMARK    7  A    between atoms: C_23  and  N_25 
ROOT
HETATM    1  C   UNL     1      17.160  -5.602 -14.899  1.00  0.00     0.000 A 
HETATM    2  C   UNL     1      17.842  -4.464 -14.485  1.00  0.00     0.001 A 
HETATM    3  C   UNL     1      18.530  -3.680 -15.417  1.00  0.00     0.012 A 
HETATM    4  C   UNL     1      18.561  -4.013 -16.786  1.00  0.00    -0.026 A 
HETATM    5  C   UNL     1      17.887  -5.189 -17.168  1.00  0.00     0.012 A 
HETATM    6  C   UNL     1      17.186  -5.968 -16.240  1.00  0.00     0.001 A 
ENDROOT
BRANCH   4   7
HETATM    7  C   UNL     1      19.216  -3.121 -17.777  1.00  0.00    -0.026 A 
HETATM    8  C   UNL     1      19.092  -3.328 -19.162  1.00  0.00     0.013 A 
HETATM    9  C   UNL     1      19.818  -2.565 -20.088  1.00  0.00     0.016 A 
HETATM   10  C   UNL     1      20.678  -1.553 -19.653  1.00  0.00     0.012 A 
HETATM   11  C   UNL     1      20.770  -1.291 -18.285  1.00  0.00     0.016 A 
HETATM   12  C   UNL     1      20.051  -2.067 -17.366  1.00  0.00     0.013 A 
BRANCH  10  13
HETATM   13  C   UNL     1      21.497  -0.813 -20.663  1.00  0.00     0.183 C 
HETATM   14  O   UNL     1      22.370  -1.412 -21.289  1.00  0.00    -0.290 OA
BRANCH  13  15
HETATM   15  C   UNL     1      21.227   0.677 -20.841  1.00  0.00     0.263 C 
BRANCH  15  16
HETATM   16  O   UNL     1      19.864   0.941 -21.162  1.00  0.00    -0.310 OA
BRANCH  16  17
HETATM   17  C   UNL     1      19.380   2.147 -20.796  1.00  0.00     0.293 C 
HETATM   18  O   UNL     1      19.910   3.231 -20.972  1.00  0.00    -0.259 OA
BRANCH  17  19
HETATM   19  C   UNL     1      18.076   1.965 -20.114  1.00  0.00     0.041 A 
HETATM   20  C   UNL     1      17.182   3.037 -20.101  1.00  0.00     0.018 A 
HETATM   21  C   UNL     1      15.959   2.896 -19.460  1.00  0.00     0.003 A 
HETATM   22  C   UNL     1      15.641   1.682 -18.836  1.00  0.00     0.030 A 
HETATM   23  C   UNL     1      16.523   0.584 -18.820  1.00  0.00     0.046 A 
HETATM   24  C   UNL     1      17.736   0.744 -19.493  1.00  0.00     0.048 A 
BRANCH  23  25
HETATM   25  N   UNL     1      16.175  -0.646 -18.159  1.00  0.00    -0.252 N 
HETATM   26  C   UNL     1      16.314  -0.825 -16.805  1.00  0.00     0.237 C 
HETATM   27  O   UNL     1      16.909  -0.148 -15.979  1.00  0.00    -0.272 OA
HETATM   28  C   UNL     1      15.611  -2.070 -16.411  1.00  0.00     0.107 C 
HETATM   29  C   UNL     1      14.203  -1.765 -15.847  1.00  0.00     0.067 C 
HETATM   30  C   UNL     1      15.499  -2.894 -17.700  1.00  0.00     0.121 C 
HETATM   31  C   UNL     1      13.803  -3.127 -15.297  1.00  0.00    -0.041 A 
HETATM   32  C   UNL     1      13.222  -1.453 -16.991  1.00  0.00    -0.041 A 
HETATM   33  C   UNL     1      13.467  -3.358 -13.966  1.00  0.00     0.008 A 
HETATM   34  C   UNL     1      13.783  -4.159 -16.284  1.00  0.00    -0.026 A 
HETATM   35  C   UNL     1      13.072  -4.638 -13.597  1.00  0.00     0.001 A 
HETATM   36  C   UNL     1      13.023  -5.662 -14.551  1.00  0.00     0.001 A 
HETATM   37  C   UNL     1      13.378  -5.431 -15.891  1.00  0.00     0.010 A 
HETATM   38  C   UNL     1      14.105  -3.624 -17.713  1.00  0.00     0.086 C 
HETATM   39  C   UNL     1      13.100  -2.493 -17.964  1.00  0.00    -0.026 A 
HETATM   40 BR   UNL     1      14.122  -5.028 -19.047  1.00  0.00    -0.074 Br
HETATM   41  C   UNL     1      12.232  -2.350 -19.041  1.00  0.00     0.010 A 
HETATM   42  C   UNL     1      11.539  -1.149 -19.185  1.00  0.00     0.001 A 
HETATM   43  C   UNL     1      11.693  -0.116 -18.257  1.00  0.00     0.001 A 
HETATM   44  C   UNL     1      12.525  -0.264 -17.144  1.00  0.00     0.008 A 
HETATM   45  C   UNL     1      15.694  -1.804 -18.766  1.00  0.00     0.238 C 
HETATM   46  O   UNL     1      15.452  -1.991 -19.951  1.00  0.00    -0.272 OA
ENDBRANCH  23  25
ENDBRANCH  17  19
ENDBRANCH  16  17
ENDBRANCH  15  16
ENDBRANCH  13  15
ENDBRANCH  10  13
ENDBRANCH   4   7
TORSDOF 7
ENDMDL
MODEL 3
REMARK VINA RESULT:      -9.9      3.489      5.859
REMARK  7 active torsions:
REMARK  status: ('A' for Active; 'I' for Inactive)
REMARK    1  A    between atoms: C_4  and  C_7 
REMARK    2  A    between atoms: C_10  and  C_13 
REMARK    3  A    between atoms: C_13  and  C_15 
REMARK    4  A    between atoms: C_15  and  O_16 
REMARK    5  A    between atoms: O_16  and  C_17 
REMARK    6  A    between atoms: C_17  and  C_19 
REMARK    7  A    between atoms: C_23  and  N_25 
ROOT
HETATM    1  C   UNL     1      14.195 -10.780 -20.819  1.00  0.00     0.000 A 
HETATM    2  C   UNL     1      13.585 -10.849 -19.571  1.00  0.00     0.001 A 
HETATM    3  C   UNL     1      14.035 -10.037 -18.524  1.00  0.00     0.012 A 
HETATM    4  C   UNL     1      15.109  -9.139 -18.692  1.00  0.00    -0.026 A 
HETATM    5  C   UNL     1      15.725  -9.117 -19.958  1.00  0.00     0.012 A 
HETATM    6  C   UNL     1      15.268  -9.917 -21.011  1.00  0.00     0.001 A 
ENDROOT
BRANCH   4   7
HETATM    7  C   UNL     1      15.514  -8.217 -17.601  1.00  0.00    -0.026 A 
HETATM    8  C   UNL     1      14.828  -8.167 -16.375  1.00  0.00     0.013 A 
HETATM    9  C   UNL     1      15.130  -7.203 -15.401  1.00  0.00     0.016 A 
HETATM   10  C   UNL     1      16.147  -6.270 -15.619  1.00  0.00     0.012 A 
HETATM   11  C   UNL     1      16.881  -6.340 -16.805  1.00  0.00     0.016 A 
HETATM   12  C   UNL     1      16.564  -7.298 -17.778  1.00  0.00     0.013 A 
BRANCH  10  13
HETATM   13  C   UNL     1      16.390  -5.208 -14.594  1.00  0.00     0.183 C 
HETATM   14  O   UNL     1      17.308  -4.406 -14.761  1.00  0.00    -0.290 OA
BRANCH  13  15
HETATM   15  C   UNL     1      15.496  -5.196 -13.359  1.00  0.00     0.263 C 
BRANCH  15  16
HETATM   16  O   UNL     1      14.634  -4.062 -13.331  1.00  0.00    -0.310 OA
BRANCH  16  17
HETATM   17  C   UNL     1      13.557  -4.101 -14.145  1.00  0.00     0.293 C 
HETATM   18  O   UNL     1      12.588  -4.835 -14.040  1.00  0.00    -0.259 OA
BRANCH  17  19
HETATM   19  C   UNL     1      13.727  -3.105 -15.230  1.00  0.00     0.041 A 
HETATM   20  C   UNL     1      13.794  -1.755 -14.882  1.00  0.00     0.018 A 
HETATM   21  C   UNL     1      13.943  -0.802 -15.880  1.00  0.00     0.003 A 
HETATM   22  C   UNL     1      14.021  -1.208 -17.219  1.00  0.00     0.030 A 
HETATM   23  C   UNL     1      13.945  -2.560 -17.606  1.00  0.00     0.046 A 
HETATM   24  C   UNL     1      13.822  -3.500 -16.581  1.00  0.00     0.048 A 
BRANCH  23  25
HETATM   25  N   UNL     1      14.016  -2.947 -18.990  1.00  0.00    -0.252 N 
HETATM   26  C   UNL     1      15.133  -3.524 -19.543  1.00  0.00     0.237 C 
HETATM   27  O   UNL     1      16.269  -3.620 -19.100  1.00  0.00    -0.272 OA
HETATM   28  C   UNL     1      14.786  -4.055 -20.882  1.00  0.00     0.107 C 
HETATM   29  C   UNL     1      14.490  -5.573 -20.826  1.00  0.00     0.067 C 
HETATM   30  C   UNL     1      13.529  -3.285 -21.308  1.00  0.00     0.121 C 
HETATM   31  C   UNL     1      14.417  -5.916 -22.306  1.00  0.00    -0.041 A 
HETATM   32  C   UNL     1      13.085  -5.825 -20.250  1.00  0.00    -0.041 A 
HETATM   33  C   UNL     1      15.232  -6.859 -22.926  1.00  0.00     0.008 A 
HETATM   34  C   UNL     1      13.409  -5.191 -23.012  1.00  0.00    -0.026 A 
HETATM   35  C   UNL     1      15.035  -7.118 -24.277  1.00  0.00     0.001 A 
HETATM   36  C   UNL     1      14.039  -6.435 -24.986  1.00  0.00     0.001 A 
HETATM   37  C   UNL     1      13.226  -5.472 -24.363  1.00  0.00     0.010 A 
HETATM   38  C   UNL     1      12.570  -4.269 -22.074  1.00  0.00     0.086 C 
HETATM   39  C   UNL     1      12.028  -5.188 -20.973  1.00  0.00    -0.026 A 
HETATM   40 BR   UNL     1      11.232  -3.250 -23.035  1.00  0.00    -0.074 Br
HETATM   41  C   UNL     1      10.707  -5.349 -20.573  1.00  0.00     0.010 A 
HETATM   42  C   UNL     1      10.443  -6.085 -19.419  1.00  0.00     0.001 A 
HETATM   43  C   UNL     1      11.480  -6.670 -18.688  1.00  0.00     0.001 A 
HETATM   44  C   UNL     1      12.809  -6.557 -19.105  1.00  0.00     0.008 A 
HETATM   45  C   UNL     1      13.020  -2.777 -19.949  1.00  0.00     0.238 C 
HETATM   46  O   UNL     1      11.903  -2.299 -19.802  1.00  0.00    -0.272 OA
ENDBRANCH  23  25
ENDBRANCH  17  19
ENDBRANCH  16  17
ENDBRANCH  15  16
ENDBRANCH  13  15
ENDBRANCH  10  13
ENDBRANCH   4   7
TORSDOF 7
ENDMDL
MODEL 4
REMARK VINA RESULT:      -9.7      2.662      4.035
REMARK  7 active torsions:
REMARK  status: ('A' for Active; 'I' for Inactive)
REMARK    1  A    between atoms: C_4  and  C_7 
REMARK    2  A    between atoms: C_10  and  C_13 
REMARK    3  A    between atoms: C_13  and  C_15 
REMARK    4  A    between atoms: C_15  and  O_16 
REMARK    5  A    between atoms: O_16  and  C_17 
REMARK    6  A    between atoms: C_17  and  C_19 
REMARK    7  A    between atoms: C_23  and  N_25 
ROOT
HETATM    1  C   UNL     1      12.341  -4.080 -23.711  1.00  0.00     0.000 A 
HETATM    2  C   UNL     1      11.466  -3.739 -22.687  1.00  0.00     0.001 A 
HETATM    3  C   UNL     1      11.965  -3.358 -21.436  1.00  0.00     0.012 A 
HETATM    4  C   UNL     1      13.349  -3.315 -21.172  1.00  0.00    -0.026 A 
HETATM    5  C   UNL     1      14.206  -3.698 -22.221  1.00  0.00     0.012 A 
HETATM    6  C   UNL     1      13.712  -4.065 -23.478  1.00  0.00     0.001 A 
ENDROOT
BRANCH   4   7
HETATM    7  C   UNL     1      13.865  -2.819 -19.871  1.00  0.00    -0.026 A 
HETATM    8  C   UNL     1      13.051  -2.739 -18.728  1.00  0.00     0.013 A 
HETATM    9  C   UNL     1      13.506  -2.147 -17.540  1.00  0.00     0.016 A 
HETATM   10  C   UNL     1      14.803  -1.635 -17.456  1.00  0.00     0.012 A 
HETATM   11  C   UNL     1      15.648  -1.758 -18.560  1.00  0.00     0.016 A 
HETATM   12  C   UNL     1      15.182  -2.339 -19.746  1.00  0.00     0.013 A 
BRANCH  10  13
HETATM   13  C   UNL     1      15.228  -0.940 -16.201  1.00  0.00     0.183 C 
HETATM   14  O   UNL     1      14.519  -0.049 -15.734  1.00  0.00    -0.290 OA
BRANCH  13  15
HETATM   15  C   UNL     1      16.557  -1.352 -15.576  1.00  0.00     0.263 C 
BRANCH  15  16
HETATM   16  O   UNL     1      16.408  -2.443 -14.672  1.00  0.00    -0.310 OA
BRANCH  16  17
HETATM   17  C   UNL     1      16.687  -3.672 -15.157  1.00  0.00     0.293 C 
HETATM   18  O   UNL     1      17.780  -4.091 -15.501  1.00  0.00    -0.259 OA
BRANCH  17  19
HETATM   19  C   UNL     1      15.437  -4.464 -15.230  1.00  0.00     0.041 A 
HETATM   20  C   UNL     1      14.534  -4.373 -14.168  1.00  0.00     0.018 A 
HETATM   21  C   UNL     1      13.360  -5.113 -14.207  1.00  0.00     0.003 A 
HETATM   22  C   UNL     1      13.099  -5.940 -15.309  1.00  0.00     0.030 A 
HETATM   23  C   UNL     1      13.993  -6.064 -16.390  1.00  0.00     0.046 A 
HETATM   24  C   UNL     1      15.154  -5.290 -16.338  1.00  0.00     0.048 A 
BRANCH  23  25
HETATM   25  N   UNL     1      13.705  -6.931 -17.502  1.00  0.00    -0.252 N 
HETATM   26  C   UNL     1      12.756  -6.631 -18.450  1.00  0.00     0.237 C 
HETATM   27  O   UNL     1      11.881  -5.778 -18.443  1.00  0.00    -0.272 OA
HETATM   28  C   UNL     1      12.906  -7.565 -19.590  1.00  0.00     0.107 C 
HETATM   29  C   UNL     1      13.715  -6.921 -20.741  1.00  0.00     0.067 C 
HETATM   30  C   UNL     1      13.660  -8.775 -19.025  1.00  0.00     0.121 C 
HETATM   31  C   UNL     1      13.517  -7.942 -21.852  1.00  0.00    -0.041 A 
HETATM   32  C   UNL     1      15.218  -6.926 -20.409  1.00  0.00    -0.041 A 
HETATM   33  C   UNL     1      12.950  -7.645 -23.088  1.00  0.00     0.008 A 
HETATM   34  C   UNL     1      13.990  -9.248 -21.518  1.00  0.00    -0.026 A 
HETATM   35  C   UNL     1      12.867  -8.656 -24.038  1.00  0.00     0.001 A 
HETATM   36  C   UNL     1      13.343  -9.939 -23.742  1.00  0.00     0.001 A 
HETATM   37  C   UNL     1      13.902 -10.242 -22.488  1.00  0.00     0.010 A 
HETATM   38  C   UNL     1      14.668  -9.297 -20.115  1.00  0.00     0.086 C 
HETATM   39  C   UNL     1      15.761  -8.223 -20.150  1.00  0.00    -0.026 A 
HETATM   40 BR   UNL     1      15.270 -11.076 -19.641  1.00  0.00    -0.074 Br
HETATM   41  C   UNL     1      17.112  -8.373 -19.856  1.00  0.00     0.010 A 
HETATM   42  C   UNL     1      17.905  -7.231 -19.754  1.00  0.00     0.001 A 
HETATM   43  C   UNL     1      17.363  -5.960 -19.964  1.00  0.00     0.001 A 
HETATM   44  C   UNL     1      16.018  -5.797 -20.307  1.00  0.00     0.008 A 
HETATM   45  C   UNL     1      14.295  -8.165 -17.764  1.00  0.00     0.238 C 
HETATM   46  O   UNL     1      15.173  -8.733 -17.129  1.00  0.00    -0.272 OA
ENDBRANCH  23  25
ENDBRANCH  17  19
ENDBRANCH  16  17
ENDBRANCH  15  16
ENDBRANCH  13  15
ENDBRANCH  10  13
ENDBRANCH   4   7
TORSDOF 7
ENDMDL
MODEL 5
REMARK VINA RESULT:      -9.6      3.170      5.310
REMARK  7 active torsions:
REMARK  status: ('A' for Active; 'I' for Inactive)
REMARK    1  A    between atoms: C_4  and  C_7 
REMARK    2  A    between atoms: C_10  and  C_13 
REMARK    3  A    between atoms: C_13  and  C_15 
REMARK    4  A    between atoms: C_15  and  O_16 
REMARK    5  A    between atoms: O_16  and  C_17 
REMARK    6  A    between atoms: C_17  and  C_19 
REMARK    7  A    between atoms: C_23  and  N_25 
ROOT
HETATM    1  C   UNL     1      14.635  -9.789 -18.700  1.00  0.00     0.000 A 
HETATM    2  C   UNL     1      15.807  -9.267 -19.234  1.00  0.00     0.001 A 
HETATM    3  C   UNL     1      16.490  -8.246 -18.563  1.00  0.00     0.012 A 
HETATM    4  C   UNL     1      16.019  -7.717 -17.345  1.00  0.00    -0.026 A 
HETATM    5  C   UNL     1      14.813  -8.245 -16.847  1.00  0.00     0.012 A 
HETATM    6  C   UNL     1      14.134  -9.276 -17.509  1.00  0.00     0.001 A 
ENDROOT
BRANCH   4   7
HETATM    7  C   UNL     1      16.803  -6.701 -16.597  1.00  0.00    -0.026 A 
HETATM    8  C   UNL     1      16.822  -6.661 -15.192  1.00  0.00     0.013 A 
HETATM    9  C   UNL     1      17.455  -5.621 -14.494  1.00  0.00     0.016 A 
HETATM   10  C   UNL     1      18.109  -4.599 -15.186  1.00  0.00     0.012 A 
HETATM   11  C   UNL     1      18.154  -4.652 -16.580  1.00  0.00     0.016 A 
HETATM   12  C   UNL     1      17.508  -5.686 -17.270  1.00  0.00     0.013 A 
BRANCH  10  13
HETATM   13  C   UNL     1      18.705  -3.465 -14.412  1.00  0.00     0.183 C 
HETATM   14  O   UNL     1      19.587  -3.695 -13.586  1.00  0.00    -0.290 OA
BRANCH  13  15
HETATM   15  C   UNL     1      18.153  -2.067 -14.665  1.00  0.00     0.263 C 
BRANCH  15  16
HETATM   16  O   UNL     1      16.773  -1.965 -14.325  1.00  0.00    -0.310 OA
BRANCH  16  17
HETATM   17  C   UNL     1      15.960  -1.423 -15.257  1.00  0.00     0.293 C 
HETATM   18  O   UNL     1      15.838  -0.238 -15.522  1.00  0.00    -0.259 OA
BRANCH  17  19
HETATM   19  C   UNL     1      15.198  -2.503 -15.929  1.00  0.00     0.041 A 
HETATM   20  C   UNL     1      14.581  -3.469 -15.132  1.00  0.00     0.018 A 
HETATM   21  C   UNL     1      13.870  -4.497 -15.738  1.00  0.00     0.003 A 
HETATM   22  C   UNL     1      13.784  -4.550 -17.136  1.00  0.00     0.030 A 
HETATM   23  C   UNL     1      14.404  -3.598 -17.969  1.00  0.00     0.046 A 
HETATM   24  C   UNL     1      15.091  -2.561 -17.335  1.00  0.00     0.048 A 
BRANCH  23  25
HETATM   25  N   UNL     1      14.309  -3.685 -19.402  1.00  0.00    -0.252 N 
HETATM   26  C   UNL     1      15.326  -4.175 -20.184  1.00  0.00     0.237 C 
HETATM   27  O   UNL     1      16.493  -4.408 -19.901  1.00  0.00    -0.272 OA
HETATM   28  C   UNL     1      14.813  -4.395 -21.557  1.00  0.00     0.107 C 
HETATM   29  C   UNL     1      14.430  -5.877 -21.783  1.00  0.00     0.067 C 
HETATM   30  C   UNL     1      13.569  -3.504 -21.670  1.00  0.00     0.121 C 
HETATM   31  C   UNL     1      14.186  -5.895 -23.285  1.00  0.00    -0.041 A 
HETATM   32  C   UNL     1      13.078  -6.190 -21.118  1.00  0.00    -0.041 A 
HETATM   33  C   UNL     1      14.874  -6.716 -24.173  1.00  0.00     0.008 A 
HETATM   34  C   UNL     1      13.158  -4.997 -23.707  1.00  0.00    -0.026 A 
HETATM   35  C   UNL     1      14.525  -6.674 -25.518  1.00  0.00     0.001 A 
HETATM   36  C   UNL     1      13.506  -5.817 -25.954  1.00  0.00     0.001 A 
HETATM   37  C   UNL     1      12.823  -4.978 -25.057  1.00  0.00     0.010 A 
HETATM   38  C   UNL     1      12.478  -4.264 -22.511  1.00  0.00     0.086 C 
HETATM   39  C   UNL     1      11.995  -5.374 -21.570  1.00  0.00    -0.026 A 
HETATM   40 BR   UNL     1      11.115  -3.012 -23.084  1.00  0.00    -0.074 Br
HETATM   41  C   UNL     1      10.713  -5.563 -21.066  1.00  0.00     0.010 A 
HETATM   42  C   UNL     1      10.522  -6.517 -20.067  1.00  0.00     0.001 A 
HETATM   43  C   UNL     1      11.591  -7.285 -19.594  1.00  0.00     0.001 A 
HETATM   44  C   UNL     1      12.875  -7.138 -20.126  1.00  0.00     0.008 A 
HETATM   45  C   UNL     1      13.233  -3.276 -20.187  1.00  0.00     0.238 C 
HETATM   46  O   UNL     1      12.169  -2.797 -19.820  1.00  0.00    -0.272 OA
ENDBRANCH  23  25
ENDBRANCH  17  19
ENDBRANCH  16  17
ENDBRANCH  15  16
ENDBRANCH  13  15
ENDBRANCH  10  13
ENDBRANCH   4   7
TORSDOF 7
ENDMDL
MODEL 6
REMARK VINA RESULT:      -9.5      3.163      7.441
REMARK  7 active torsions:
REMARK  status: ('A' for Active; 'I' for Inactive)
REMARK    1  A    between atoms: C_4  and  C_7 
REMARK    2  A    between atoms: C_10  and  C_13 
REMARK    3  A    between atoms: C_13  and  C_15 
REMARK    4  A    between atoms: C_15  and  O_16 
REMARK    5  A    between atoms: O_16  and  C_17 
REMARK    6  A    between atoms: C_17  and  C_19 
REMARK    7  A    between atoms: C_23  and  N_25 
ROOT
HETATM    1  C   UNL     1      10.065  -3.033 -21.124  1.00  0.00     0.000 A 
HETATM    2  C   UNL     1      10.825  -2.186 -20.327  1.00  0.00     0.001 A 
HETATM    3  C   UNL     1      11.677  -2.717 -19.351  1.00  0.00     0.012 A 
HETATM    4  C   UNL     1      11.786  -4.106 -19.141  1.00  0.00    -0.026 A 
HETATM    5  C   UNL     1      10.978  -4.935 -19.943  1.00  0.00     0.012 A 
HETATM    6  C   UNL     1      10.137  -4.408 -20.929  1.00  0.00     0.001 A 
ENDROOT
BRANCH   4   7
HETATM    7  C   UNL     1      12.762  -4.658 -18.167  1.00  0.00    -0.026 A 
HETATM    8  C   UNL     1      12.357  -5.417 -17.055  1.00  0.00     0.013 A 
HETATM    9  C   UNL     1      13.269  -5.822 -16.068  1.00  0.00     0.016 A 
HETATM   10  C   UNL     1      14.623  -5.496 -16.179  1.00  0.00     0.012 A 
HETATM   11  C   UNL     1      15.057  -4.795 -17.307  1.00  0.00     0.016 A 
HETATM   12  C   UNL     1      14.137  -4.384 -18.280  1.00  0.00     0.013 A 
BRANCH  10  13
HETATM   13  C   UNL     1      15.554  -5.876 -15.071  1.00  0.00     0.183 C 
HETATM   14  O   UNL     1      16.480  -6.652 -15.299  1.00  0.00    -0.290 OA
BRANCH  13  15
HETATM   15  C   UNL     1      15.280  -5.300 -13.686  1.00  0.00     0.263 C 
BRANCH  15  16
HETATM   16  O   UNL     1      15.446  -3.885 -13.651  1.00  0.00    -0.310 OA
BRANCH  16  17
HETATM   17  C   UNL     1      14.316  -3.145 -13.641  1.00  0.00     0.293 C 
HETATM   18  O   UNL     1      13.408  -3.208 -12.828  1.00  0.00    -0.259 OA
BRANCH  17  19
HETATM   19  C   UNL     1      14.325  -2.221 -14.801  1.00  0.00     0.041 A 
HETATM   20  C   UNL     1      13.102  -1.727 -15.260  1.00  0.00     0.018 A 
HETATM   21  C   UNL     1      13.083  -0.869 -16.351  1.00  0.00     0.003 A 
HETATM   22  C   UNL     1      14.287  -0.514 -16.975  1.00  0.00     0.030 A 
HETATM   23  C   UNL     1      15.535  -1.003 -16.544  1.00  0.00     0.046 A 
HETATM   24  C   UNL     1      15.530  -1.844 -15.430  1.00  0.00     0.048 A 
BRANCH  23  25
HETATM   25  N   UNL     1      16.754  -0.630 -17.212  1.00  0.00    -0.252 N 
HETATM   26  C   UNL     1      17.779   0.025 -16.574  1.00  0.00     0.237 C 
HETATM   27  O   UNL     1      17.798   0.583 -15.486  1.00  0.00    -0.272 OA
HETATM   28  C   UNL     1      18.978   0.003 -17.443  1.00  0.00     0.107 C 
HETATM   29  C   UNL     1      19.949  -1.129 -17.032  1.00  0.00     0.067 C 
HETATM   30  C   UNL     1      18.445  -0.246 -18.860  1.00  0.00     0.121 C 
HETATM   31  C   UNL     1      21.172  -0.794 -17.874  1.00  0.00    -0.041 A 
HETATM   32  C   UNL     1      19.434  -2.489 -17.537  1.00  0.00    -0.041 A 
HETATM   33  C   UNL     1      22.433  -0.539 -17.345  1.00  0.00     0.008 A 
HETATM   34  C   UNL     1      20.912  -0.783 -19.279  1.00  0.00    -0.026 A 
HETATM   35  C   UNL     1      23.481  -0.290 -18.224  1.00  0.00     0.001 A 
HETATM   36  C   UNL     1      23.256  -0.295 -19.606  1.00  0.00     0.001 A 
HETATM   37  C   UNL     1      21.978  -0.538 -20.139  1.00  0.00     0.010 A 
HETATM   38  C   UNL     1      19.446  -1.194 -19.618  1.00  0.00     0.086 C 
HETATM   39  C   UNL     1      19.238  -2.558 -18.951  1.00  0.00    -0.026 A 
HETATM   40 BR   UNL     1      19.078  -1.136 -21.519  1.00  0.00    -0.074 Br
HETATM   41  C   UNL     1      18.793  -3.735 -19.543  1.00  0.00     0.010 A 
HETATM   42  C   UNL     1      18.481  -4.818 -18.723  1.00  0.00     0.001 A 
HETATM   43  C   UNL     1      18.630  -4.735 -17.336  1.00  0.00     0.001 A 
HETATM   44  C   UNL     1      19.122  -3.575 -16.732  1.00  0.00     0.008 A 
HETATM   45  C   UNL     1      17.061  -0.841 -18.554  1.00  0.00     0.238 C 
HETATM   46  O   UNL     1      16.379  -1.394 -19.407  1.00  0.00    -0.272 OA
ENDBRANCH  23  25
ENDBRANCH  17  19
ENDBRANCH  16  17
ENDBRANCH  15  16
ENDBRANCH  13  15
ENDBRANCH  10  13
ENDBRANCH   4   7
TORSDOF 7
ENDMDL
MODEL 7
REMARK VINA RESULT:      -9.5      3.176      4.843
REMARK  7 active torsions:
REMARK  status: ('A' for Active; 'I' for Inactive)
REMARK    1  A    between atoms: C_4  and  C_7 
REMARK    2  A    between atoms: C_10  and  C_13 
REMARK    3  A    between atoms: C_13  and  C_15 
REMARK    4  A    between atoms: C_15  and  O_16 
REMARK    5  A    between atoms: O_16  and  C_17 
REMARK    6  A    between atoms: C_17  and  C_19 
REMARK    7  A    between atoms: C_23  and  N_25 
ROOT
HETATM    1  C   UNL     1      14.284  -6.323 -26.534  1.00  0.00     0.000 A 
HETATM    2  C   UNL     1      13.447  -5.214 -26.580  1.00  0.00     0.001 A 
HETATM    3  C   UNL     1      13.157  -4.505 -25.408  1.00  0.00     0.012 A 
HETATM    4  C   UNL     1      13.690  -4.887 -24.161  1.00  0.00    -0.026 A 
HETATM    5  C   UNL     1      14.508  -6.032 -24.144  1.00  0.00     0.012 A 
HETATM    6  C   UNL     1      14.811  -6.735 -25.315  1.00  0.00     0.001 A 
ENDROOT
BRANCH   4   7
HETATM    7  C   UNL     1      13.449  -4.071 -22.944  1.00  0.00    -0.026 A 
HETATM    8  C   UNL     1      14.501  -3.642 -22.114  1.00  0.00     0.013 A 
HETATM    9  C   UNL     1      14.259  -2.987 -20.897  1.00  0.00     0.016 A 
HETATM   10  C   UNL     1      12.951  -2.721 -20.484  1.00  0.00     0.012 A 
HETATM   11  C   UNL     1      11.894  -3.085 -21.321  1.00  0.00     0.016 A 
HETATM   12  C   UNL     1      12.144  -3.750 -22.529  1.00  0.00     0.013 A 
BRANCH  10  13
HETATM   13  C   UNL     1      12.727  -2.093 -19.145  1.00  0.00     0.183 C 
HETATM   14  O   UNL     1      11.581  -1.997 -18.707  1.00  0.00    -0.290 OA
BRANCH  13  15
HETATM   15  C   UNL     1      13.945  -1.562 -18.398  1.00  0.00     0.263 C 
BRANCH  15  16
HETATM   16  O   UNL     1      13.918  -1.908 -17.015  1.00  0.00    -0.310 OA
BRANCH  16  17
HETATM   17  C   UNL     1      14.967  -2.621 -16.551  1.00  0.00     0.293 C 
HETATM   18  O   UNL     1      16.122  -2.242 -16.451  1.00  0.00    -0.259 OA
BRANCH  17  19
HETATM   19  C   UNL     1      14.508  -3.982 -16.181  1.00  0.00     0.041 A 
HETATM   20  C   UNL     1      14.457  -4.315 -14.826  1.00  0.00     0.018 A 
HETATM   21  C   UNL     1      14.041  -5.586 -14.454  1.00  0.00     0.003 A 
HETATM   22  C   UNL     1      13.680  -6.514 -15.441  1.00  0.00     0.030 A 
HETATM   23  C   UNL     1      13.731  -6.214 -16.816  1.00  0.00     0.046 A 
HETATM   24  C   UNL     1      14.129  -4.921 -17.163  1.00  0.00     0.048 A 
BRANCH  23  25
HETATM   25  N   UNL     1      13.366  -7.190 -17.808  1.00  0.00    -0.252 N 
HETATM   26  C   UNL     1      12.367  -6.978 -18.726  1.00  0.00     0.237 C 
HETATM   27  O   UNL     1      11.505  -6.112 -18.763  1.00  0.00    -0.272 OA
HETATM   28  C   UNL     1      12.438  -8.032 -19.765  1.00  0.00     0.107 C 
HETATM   29  C   UNL     1      13.185  -7.532 -21.024  1.00  0.00     0.067 C 
HETATM   30  C   UNL     1      13.209  -9.188 -19.115  1.00  0.00     0.121 C 
HETATM   31  C   UNL     1      12.909  -8.664 -22.003  1.00  0.00    -0.041 A 
HETATM   32  C   UNL     1      14.705  -7.530 -20.780  1.00  0.00    -0.041 A 
HETATM   33  C   UNL     1      12.274  -8.492 -23.229  1.00  0.00     0.008 A 
HETATM   34  C   UNL     1      13.384  -9.935 -21.556  1.00  0.00    -0.026 A 
HETATM   35  C   UNL     1      12.122  -9.598 -24.057  1.00  0.00     0.001 A 
HETATM   36  C   UNL     1      12.599 -10.851 -23.650  1.00  0.00     0.001 A 
HETATM   37  C   UNL     1      13.226 -11.026 -22.405  1.00  0.00     0.010 A 
HETATM   38  C   UNL     1      14.144  -9.844 -20.197  1.00  0.00     0.086 C 
HETATM   39  C   UNL     1      15.246  -8.801 -20.412  1.00  0.00    -0.026 A 
HETATM   40 BR   UNL     1      14.750 -11.572 -19.567  1.00  0.00    -0.074 Br
HETATM   41  C   UNL     1      16.610  -8.945 -20.181  1.00  0.00     0.010 A 
HETATM   42  C   UNL     1      17.422  -7.814 -20.251  1.00  0.00     0.001 A 
HETATM   43  C   UNL     1      16.885  -6.563 -20.567  1.00  0.00     0.001 A 
HETATM   44  C   UNL     1      15.524  -6.413 -20.848  1.00  0.00     0.008 A 
HETATM   45  C   UNL     1      13.924  -8.457 -17.967  1.00  0.00     0.238 C 
HETATM   46  O   UNL     1      14.831  -8.969 -17.325  1.00  0.00    -0.272 OA
ENDBRANCH  23  25
ENDBRANCH  17  19
ENDBRANCH  16  17
ENDBRANCH  15  16
ENDBRANCH  13  15
ENDBRANCH  10  13
ENDBRANCH   4   7
TORSDOF 7
ENDMDL
MODEL 8
REMARK VINA RESULT:      -9.5      3.058      5.420
REMARK  7 active torsions:
REMARK  status: ('A' for Active; 'I' for Inactive)
REMARK    1  A    between atoms: C_4  and  C_7 
REMARK    2  A    between atoms: C_10  and  C_13 
REMARK    3  A    between atoms: C_13  and  C_15 
REMARK    4  A    between atoms: C_15  and  O_16 
REMARK    5  A    between atoms: O_16  and  C_17 
REMARK    6  A    between atoms: C_17  and  C_19 
REMARK    7  A    between atoms: C_23  and  N_25 
ROOT
HETATM    1  C   UNL     1      12.476  -4.162 -23.788  1.00  0.00     0.000 A 
HETATM    2  C   UNL     1      13.782  -4.207 -23.315  1.00  0.00     0.001 A 
HETATM    3  C   UNL     1      14.088  -3.690 -22.051  1.00  0.00     0.012 A 
HETATM    4  C   UNL     1      13.101  -3.109 -21.229  1.00  0.00    -0.026 A 
HETATM    5  C   UNL     1      11.795  -3.051 -21.752  1.00  0.00     0.012 A 
HETATM    6  C   UNL     1      11.482  -3.580 -23.009  1.00  0.00     0.001 A 
ENDROOT
BRANCH   4   7
HETATM    7  C   UNL     1      13.422  -2.651 -19.854  1.00  0.00    -0.026 A 
HETATM    8  C   UNL     1      14.580  -3.075 -19.178  1.00  0.00     0.013 A 
HETATM    9  C   UNL     1      14.810  -2.746 -17.834  1.00  0.00     0.016 A 
HETATM   10  C   UNL     1      13.893  -1.961 -17.130  1.00  0.00     0.012 A 
HETATM   11  C   UNL     1      12.767  -1.479 -17.799  1.00  0.00     0.016 A 
HETATM   12  C   UNL     1      12.538  -1.823 -19.138  1.00  0.00     0.013 A 
BRANCH  10  13
HETATM   13  C   UNL     1      14.131  -1.695 -15.677  1.00  0.00     0.183 C 
HETATM   14  O   UNL     1      14.263  -0.535 -15.289  1.00  0.00    -0.290 OA
BRANCH  13  15
HETATM   15  C   UNL     1      14.235  -2.896 -14.744  1.00  0.00     0.263 C 
BRANCH  15  16
HETATM   16  O   UNL     1      15.572  -3.120 -14.304  1.00  0.00    -0.310 OA
BRANCH  16  17
HETATM   17  C   UNL     1      15.992  -4.403 -14.275  1.00  0.00     0.293 C 
HETATM   18  O   UNL     1      15.815  -5.210 -13.378  1.00  0.00    -0.259 OA
BRANCH  17  19
HETATM   19  C   UNL     1      16.736  -4.702 -15.522  1.00  0.00     0.041 A 
HETATM   20  C   UNL     1      17.824  -3.890 -15.852  1.00  0.00     0.018 A 
HETATM   21  C   UNL     1      18.531  -4.143 -17.019  1.00  0.00     0.003 A 
HETATM   22  C   UNL     1      18.144  -5.205 -17.848  1.00  0.00     0.030 A 
HETATM   23  C   UNL     1      17.046  -6.035 -17.551  1.00  0.00     0.046 A 
HETATM   24  C   UNL     1      16.366  -5.776 -16.359  1.00  0.00     0.048 A 
BRANCH  23  25
HETATM   25  N   UNL     1      16.663  -7.111 -18.427  1.00  0.00    -0.252 N 
HETATM   26  C   UNL     1      16.675  -8.427 -18.034  1.00  0.00     0.237 C 
HETATM   27  O   UNL     1      17.174  -8.948 -17.047  1.00  0.00    -0.272 OA
HETATM   28  C   UNL     1      15.965  -9.238 -19.051  1.00  0.00     0.107 C 
HETATM   29  C   UNL     1      14.503  -9.517 -18.627  1.00  0.00     0.067 C 
HETATM   30  C   UNL     1      15.994  -8.394 -20.332  1.00  0.00     0.121 C 
HETATM   31  C   UNL     1      14.082 -10.542 -19.670  1.00  0.00    -0.041 A 
HETATM   32  C   UNL     1      13.629  -8.272 -18.863  1.00  0.00    -0.041 A 
HETATM   33  C   UNL     1      13.624 -11.819 -19.362  1.00  0.00     0.008 A 
HETATM   34  C   UNL     1      14.177 -10.063 -21.013  1.00  0.00    -0.026 A 
HETATM   35  C   UNL     1      13.224 -12.647 -20.404  1.00  0.00     0.001 A 
HETATM   36  C   UNL     1      13.288 -12.194 -21.728  1.00  0.00     0.001 A 
HETATM   37  C   UNL     1      13.764 -10.908 -22.038  1.00  0.00     0.010 A 
HETATM   38  C   UNL     1      14.623  -8.570 -21.084  1.00  0.00     0.086 C 
HETATM   39  C   UNL     1      13.623  -7.801 -20.213  1.00  0.00    -0.026 A 
HETATM   40 BR   UNL     1      14.798  -7.932 -22.905  1.00  0.00    -0.074 Br
HETATM   41  C   UNL     1      12.859  -6.696 -20.569  1.00  0.00     0.010 A 
HETATM   42  C   UNL     1      12.157  -6.020 -19.572  1.00  0.00     0.001 A 
HETATM   43  C   UNL     1      12.199  -6.454 -18.244  1.00  0.00     0.001 A 
HETATM   44  C   UNL     1      12.924  -7.592 -17.881  1.00  0.00     0.008 A 
HETATM   45  C   UNL     1      16.266  -6.994 -19.757  1.00  0.00     0.238 C 
HETATM   46  O   UNL     1      16.143  -5.974 -20.422  1.00  0.00    -0.272 OA
ENDBRANCH  23  25
ENDBRANCH  17  19
ENDBRANCH  16  17
ENDBRANCH  15  16
ENDBRANCH  13  15
ENDBRANCH  10  13
ENDBRANCH   4   7
TORSDOF 7
ENDMDL
MODEL 9
REMARK VINA RESULT:      -9.5      2.421      4.519
REMARK  7 active torsions:
REMARK  status: ('A' for Active; 'I' for Inactive)
REMARK    1  A    between atoms: C_4  and  C_7 
REMARK    2  A    between atoms: C_10  and  C_13 
REMARK    3  A    between atoms: C_13  and  C_15 
REMARK    4  A    between atoms: C_15  and  O_16 
REMARK    5  A    between atoms: O_16  and  C_17 
REMARK    6  A    between atoms: C_17  and  C_19 
REMARK    7  A    between atoms: C_23  and  N_25 
ROOT
HETATM    1  C   UNL     1       9.926  -3.911 -22.394  1.00  0.00     0.000 A 
HETATM    2  C   UNL     1      11.269  -3.659 -22.650  1.00  0.00     0.001 A 
HETATM    3  C   UNL     1      12.035  -2.934 -21.731  1.00  0.00     0.012 A 
HETATM    4  C   UNL     1      11.480  -2.435 -20.536  1.00  0.00    -0.026 A 
HETATM    5  C   UNL     1      10.110  -2.679 -20.322  1.00  0.00     0.012 A 
HETATM    6  C   UNL     1       9.345  -3.416 -21.232  1.00  0.00     0.001 A 
ENDROOT
BRANCH   4   7
HETATM    7  C   UNL     1      12.327  -1.749 -19.527  1.00  0.00    -0.026 A 
HETATM    8  C   UNL     1      11.818  -0.744 -18.686  1.00  0.00     0.013 A 
HETATM    9  C   UNL     1      12.651  -0.008 -17.829  1.00  0.00     0.016 A 
HETATM   10  C   UNL     1      14.021  -0.274 -17.774  1.00  0.00     0.012 A 
HETATM   11  C   UNL     1      14.538  -1.308 -18.556  1.00  0.00     0.016 A 
HETATM   12  C   UNL     1      13.701  -2.029 -19.418  1.00  0.00     0.013 A 
BRANCH  10  13
HETATM   13  C   UNL     1      14.892   0.582 -16.909  1.00  0.00     0.183 C 
HETATM   14  O   UNL     1      15.486   1.537 -17.408  1.00  0.00    -0.290 OA
BRANCH  13  15
HETATM   15  C   UNL     1      15.028   0.199 -15.440  1.00  0.00     0.263 C 
BRANCH  15  16
HETATM   16  O   UNL     1      14.411  -1.052 -15.152  1.00  0.00    -0.310 OA
BRANCH  16  17
HETATM   17  C   UNL     1      15.235  -2.110 -14.994  1.00  0.00     0.293 C 
HETATM   18  O   UNL     1      16.437  -2.076 -14.789  1.00  0.00    -0.259 OA
BRANCH  17  19
HETATM   19  C   UNL     1      14.453  -3.363 -15.123  1.00  0.00     0.041 A 
HETATM   20  C   UNL     1      13.737  -3.812 -14.011  1.00  0.00     0.018 A 
HETATM   21  C   UNL     1      13.005  -4.988 -14.102  1.00  0.00     0.003 A 
HETATM   22  C   UNL     1      12.997  -5.706 -15.306  1.00  0.00     0.030 A 
HETATM   23  C   UNL     1      13.716  -5.289 -16.442  1.00  0.00     0.046 A 
HETATM   24  C   UNL     1      14.423  -4.090 -16.332  1.00  0.00     0.048 A 
BRANCH  23  25
HETATM   25  N   UNL     1      13.699  -6.053 -17.661  1.00  0.00    -0.252 N 
HETATM   26  C   UNL     1      12.842  -5.776 -18.698  1.00  0.00     0.237 C 
HETATM   27  O   UNL     1      11.857  -5.053 -18.732  1.00  0.00    -0.272 OA
HETATM   28  C   UNL     1      13.269  -6.546 -19.891  1.00  0.00     0.107 C 
HETATM   29  C   UNL     1      14.112  -5.673 -20.851  1.00  0.00     0.067 C 
HETATM   30  C   UNL     1      14.116  -7.702 -19.343  1.00  0.00     0.121 C 
HETATM   31  C   UNL     1      14.205  -6.579 -22.071  1.00  0.00    -0.041 A 
HETATM   32  C   UNL     1      15.546  -5.517 -20.314  1.00  0.00    -0.041 A 
HETATM   33  C   UNL     1      13.760  -6.220 -23.339  1.00  0.00     0.008 A 
HETATM   34  C   UNL     1      14.819  -7.840 -21.800  1.00  0.00    -0.026 A 
HETATM   35  C   UNL     1      13.945  -7.118 -24.383  1.00  0.00     0.001 A 
HETATM   36  C   UNL     1      14.563  -8.353 -24.148  1.00  0.00     0.001 A 
HETATM   37  C   UNL     1      15.000  -8.719 -22.863  1.00  0.00     0.010 A 
HETATM   38  C   UNL     1      15.317  -7.958 -20.327  1.00  0.00     0.086 C 
HETATM   39  C   UNL     1      16.237  -6.751 -20.106  1.00  0.00    -0.026 A 
HETATM   40 BR   UNL     1      16.109  -9.684 -19.945  1.00  0.00    -0.074 Br
HETATM   41  C   UNL     1      17.547  -6.754 -19.643  1.00  0.00     0.010 A 
HETATM   42  C   UNL     1      18.146  -5.537 -19.323  1.00  0.00     0.001 A 
HETATM   43  C   UNL     1      17.454  -4.333 -19.484  1.00  0.00     0.001 A 
HETATM   44  C   UNL     1      16.153  -4.311 -19.995  1.00  0.00     0.008 A 
HETATM   45  C   UNL     1      14.491  -7.161 -17.954  1.00  0.00     0.238 C 
HETATM   46  O   UNL     1      15.357  -7.676 -17.260  1.00  0.00    -0.272 OA
ENDBRANCH  23  25
ENDBRANCH  17  19
ENDBRANCH  16  17
ENDBRANCH  15  16
ENDBRANCH  13  15
ENDBRANCH  10  13
ENDBRANCH   4   7
TORSDOF 7
ENDMDL
