MODEL 1
REMARK VINA RESULT:      -7.3      0.000      0.000
REMARK  5 active torsions:
REMARK  status: ('A' for Active; 'I' for Inactive)
REMARK    1  A    between atoms: C_7  and  C_8 
REMARK    2  A    between atoms: C_8  and  N_9 
REMARK    3  A    between atoms: N_9  and  S_10 
REMARK    4  A    between atoms: S_10  and  C_13 
REMARK    5  A    between atoms: C_15  and  C_20 
ROOT
HETATM    1  C   UNL     1      17.147  -2.436 -19.571  1.00  0.00     0.049 C 
HETATM    2  C   UNL     1      16.397  -3.603 -20.153  1.00  0.00    -0.054 A 
HETATM    3  C   UNL     1      15.327  -3.332 -21.028  1.00  0.00     0.007 A 
HETATM    4  C   UNL     1      14.567  -4.367 -21.574  1.00  0.00     0.001 A 
HETATM    5  C   UNL     1      14.869  -5.685 -21.260  1.00  0.00     0.001 A 
HETATM    6  C   UNL     1      15.926  -5.973 -20.397  1.00  0.00     0.009 A 
HETATM    7  C   UNL     1      16.700  -4.944 -19.826  1.00  0.00    -0.038 A 
ENDROOT
BRANCH   7   8
HETATM    8  C   UNL     1      17.762  -5.328 -18.815  1.00  0.00     0.143 C 
BRANCH   8   9
HETATM    9  N   UNL     1      17.323  -6.389 -17.896  1.00  0.00    -0.211 NA
HETATM   10  HN  UNL     1      17.826  -7.273 -17.994  1.00  0.00     0.140 HD
BRANCH   9  11
HETATM   11  S   UNL     1      17.198  -5.994 -16.262  1.00  0.00     0.242 S 
HETATM   12  O   UNL     1      17.508  -7.214 -15.550  1.00  0.00    -0.206 OA
HETATM   13  O   UNL     1      17.968  -4.794 -16.025  1.00  0.00    -0.206 OA
BRANCH  11  14
HETATM   14  C   UNL     1      15.455  -5.651 -15.997  1.00  0.00     0.081 C 
HETATM   15  C   UNL     1      14.596  -5.699 -17.123  1.00  0.00     0.039 C 
HETATM   16  C   UNL     1      13.198  -5.620 -16.975  1.00  0.00    -0.006 C 
HETATM   17  C   UNL     1      12.684  -5.659 -15.681  1.00  0.00     0.014 C 
HETATM   18  C   UNL     1      13.517  -5.544 -14.571  1.00  0.00     0.009 C 
HETATM   19  C   UNL     1      14.911  -5.504 -14.706  1.00  0.00    -0.039 C 
HETATM   20  C   UNL     1      15.704  -5.359 -13.440  1.00  0.00     0.050 C 
BRANCH  16  21
HETATM   21  C   UNL     1      12.305  -5.530 -18.191  1.00  0.00     0.065 A 
HETATM   22  C   UNL     1      12.041  -4.192 -18.849  1.00  0.00    -0.017 A 
HETATM   23  C   UNL     1      12.689  -2.900 -18.408  1.00  0.00     0.042 C 
HETATM   24  C   UNL     1      11.222  -4.204 -19.917  1.00  0.00     0.020 A 
HETATM   25  C   UNL     1      12.559  -1.734 -19.392  1.00  0.00     0.005 C 
HETATM   26  C   UNL     1      11.142  -1.670 -19.934  1.00  0.00     0.005 C 
HETATM   27  C   UNL     1      10.820  -2.962 -20.681  1.00  0.00     0.045 C 
HETATM   28  C   UNL     1      10.666  -5.476 -20.447  1.00  0.00     0.268 A 
HETATM   29  O   UNL     1       9.953  -5.458 -21.449  1.00  0.00    -0.266 OA
HETATM   30  N   UNL     1      11.026  -6.626 -19.762  1.00  0.00    -0.261 N 
HETATM   31  C   UNL     1      10.563  -7.918 -20.240  1.00  0.00     0.181 C 
HETATM   32  N   UNL     1      11.827  -6.651 -18.650  1.00  0.00    -0.295 N 
HETATM   33  HN  UNL     1      12.045  -7.534 -18.189  1.00  0.00     0.187 HD
ENDBRANCH  16  21
ENDBRANCH  11  14
ENDBRANCH   9  11
ENDBRANCH   8   9
ENDBRANCH   7   8
TORSDOF 5
ENDMDL
MODEL 2
REMARK VINA RESULT:      -7.2      3.447      6.874
REMARK  5 active torsions:
REMARK  status: ('A' for Active; 'I' for Inactive)
REMARK    1  A    between atoms: C_7  and  C_8 
REMARK    2  A    between atoms: C_8  and  N_9 
REMARK    3  A    between atoms: N_9  and  S_10 
REMARK    4  A    between atoms: S_10  and  C_13 
REMARK    5  A    between atoms: C_15  and  C_20 
ROOT
HETATM    1  C   UNL     1      11.783  -5.578 -18.248  1.00  0.00     0.049 C 
HETATM    2  C   UNL     1      12.700  -6.278 -19.213  1.00  0.00    -0.054 A 
HETATM    3  C   UNL     1      14.004  -6.589 -18.781  1.00  0.00     0.007 A 
HETATM    4  C   UNL     1      14.916  -7.204 -19.639  1.00  0.00     0.001 A 
HETATM    5  C   UNL     1      14.537  -7.525 -20.935  1.00  0.00     0.001 A 
HETATM    6  C   UNL     1      13.250  -7.227 -21.381  1.00  0.00     0.009 A 
HETATM    7  C   UNL     1      12.316  -6.596 -20.536  1.00  0.00    -0.038 A 
ENDROOT
BRANCH   7   8
HETATM    8  C   UNL     1      10.973  -6.208 -21.123  1.00  0.00     0.143 C 
BRANCH   8   9
HETATM    9  N   UNL     1      11.088  -5.273 -22.252  1.00  0.00    -0.211 NA
HETATM   10  HN  UNL     1      10.446  -5.457 -23.024  1.00  0.00     0.140 HD
BRANCH   9  11
HETATM   11  S   UNL     1      11.080  -3.626 -21.896  1.00  0.00     0.242 S 
HETATM   12  O   UNL     1      10.828  -2.965 -23.157  1.00  0.00    -0.206 OA
HETATM   13  O   UNL     1      10.201  -3.409 -20.769  1.00  0.00    -0.206 OA
BRANCH  11  14
HETATM   14  C   UNL     1      12.770  -3.242 -21.423  1.00  0.00     0.081 C 
HETATM   15  C   UNL     1      12.971  -2.549 -20.203  1.00  0.00     0.039 C 
HETATM   16  C   UNL     1      14.263  -2.368 -19.675  1.00  0.00    -0.006 C 
HETATM   17  C   UNL     1      15.314  -3.033 -20.301  1.00  0.00     0.014 C 
HETATM   18  C   UNL     1      15.140  -3.658 -21.533  1.00  0.00     0.009 C 
HETATM   19  C   UNL     1      13.877  -3.748 -22.133  1.00  0.00    -0.039 C 
HETATM   20  C   UNL     1      13.815  -4.428 -23.470  1.00  0.00     0.050 C 
BRANCH  16  21
HETATM   21  C   UNL     1      14.473  -1.507 -18.450  1.00  0.00     0.065 A 
HETATM   22  C   UNL     1      14.334  -2.101 -17.064  1.00  0.00    -0.017 A 
HETATM   23  C   UNL     1      14.066  -3.566 -16.804  1.00  0.00     0.042 C 
HETATM   24  C   UNL     1      14.523  -1.259 -16.033  1.00  0.00     0.020 A 
HETATM   25  C   UNL     1      14.291  -4.026 -15.362  1.00  0.00     0.005 C 
HETATM   26  C   UNL     1      13.701  -3.013 -14.397  1.00  0.00     0.005 C 
HETATM   27  C   UNL     1      14.395  -1.666 -14.582  1.00  0.00     0.045 C 
HETATM   28  C   UNL     1      14.907   0.159 -16.256  1.00  0.00     0.268 A 
HETATM   29  O   UNL     1      15.113   0.894 -15.291  1.00  0.00    -0.266 OA
HETATM   30  N   UNL     1      15.034   0.551 -17.580  1.00  0.00    -0.261 N 
HETATM   31  C   UNL     1      15.450   1.908 -17.888  1.00  0.00     0.181 C 
HETATM   32  N   UNL     1      14.814  -0.267 -18.658  1.00  0.00    -0.295 N 
HETATM   33  HN  UNL     1      14.916   0.089 -19.608  1.00  0.00     0.187 HD
ENDBRANCH  16  21
ENDBRANCH  11  14
ENDBRANCH   9  11
ENDBRANCH   8   9
ENDBRANCH   7   8
TORSDOF 5
ENDMDL
MODEL 3
REMARK VINA RESULT:      -7.1      2.586      3.924
REMARK  5 active torsions:
REMARK  status: ('A' for Active; 'I' for Inactive)
REMARK    1  A    between atoms: C_7  and  C_8 
REMARK    2  A    between atoms: C_8  and  N_9 
REMARK    3  A    between atoms: N_9  and  S_10 
REMARK    4  A    between atoms: S_10  and  C_13 
REMARK    5  A    between atoms: C_15  and  C_20 
ROOT
HETATM    1  C   UNL     1      15.137  -7.433 -21.778  1.00  0.00     0.049 C 
HETATM    2  C   UNL     1      15.437  -6.030 -21.325  1.00  0.00    -0.054 A 
HETATM    3  C   UNL     1      14.597  -4.994 -21.778  1.00  0.00     0.007 A 
HETATM    4  C   UNL     1      14.841  -3.667 -21.425  1.00  0.00     0.001 A 
HETATM    5  C   UNL     1      15.922  -3.356 -20.611  1.00  0.00     0.001 A 
HETATM    6  C   UNL     1      16.764  -4.368 -20.152  1.00  0.00     0.009 A 
HETATM    7  C   UNL     1      16.543  -5.714 -20.504  1.00  0.00    -0.038 A 
ENDROOT
BRANCH   7   8
HETATM    8  C   UNL     1      17.561  -6.745 -20.055  1.00  0.00     0.143 C 
BRANCH   8   9
HETATM    9  N   UNL     1      17.503  -7.017 -18.611  1.00  0.00    -0.211 NA
HETATM   10  HN  UNL     1      17.301  -6.200 -18.032  1.00  0.00     0.140 HD
BRANCH   9  11
HETATM   11  S   UNL     1      16.551  -8.312 -18.106  1.00  0.00     0.242 S 
HETATM   12  O   UNL     1      16.595  -9.264 -19.194  1.00  0.00    -0.206 OA
HETATM   13  O   UNL     1      16.977  -8.699 -16.780  1.00  0.00    -0.206 OA
BRANCH  11  14
HETATM   14  C   UNL     1      14.879  -7.663 -18.034  1.00  0.00     0.081 C 
HETATM   15  C   UNL     1      14.721  -6.271 -17.821  1.00  0.00     0.039 C 
HETATM   16  C   UNL     1      13.459  -5.657 -17.929  1.00  0.00    -0.006 C 
HETATM   17  C   UNL     1      12.406  -6.429 -18.413  1.00  0.00     0.014 C 
HETATM   18  C   UNL     1      12.532  -7.808 -18.560  1.00  0.00     0.009 C 
HETATM   19  C   UNL     1      13.756  -8.456 -18.344  1.00  0.00    -0.039 C 
HETATM   20  C   UNL     1      13.765  -9.947 -18.515  1.00  0.00     0.050 C 
BRANCH  16  21
HETATM   21  C   UNL     1      13.284  -4.201 -17.561  1.00  0.00     0.065 A 
HETATM   22  C   UNL     1      12.484  -3.277 -18.454  1.00  0.00    -0.017 A 
HETATM   23  C   UNL     1      11.755  -3.737 -19.696  1.00  0.00     0.042 C 
HETATM   24  C   UNL     1      12.393  -1.995 -18.057  1.00  0.00     0.020 A 
HETATM   25  C   UNL     1      10.743  -2.741 -20.267  1.00  0.00     0.005 C 
HETATM   26  C   UNL     1      11.337  -1.343 -20.268  1.00  0.00     0.005 C 
HETATM   27  C   UNL     1      11.663  -0.924 -18.836  1.00  0.00     0.045 C 
HETATM   28  C   UNL     1      12.998  -1.540 -16.779  1.00  0.00     0.268 A 
HETATM   29  O   UNL     1      12.863  -0.369 -16.424  1.00  0.00    -0.266 OA
HETATM   30  N   UNL     1      13.669  -2.507 -16.048  1.00  0.00    -0.261 N 
HETATM   31  C   UNL     1      14.252  -2.158 -14.763  1.00  0.00     0.181 C 
HETATM   32  N   UNL     1      13.814  -3.814 -16.436  1.00  0.00    -0.295 N 
HETATM   33  HN  UNL     1      14.330  -4.473 -15.853  1.00  0.00     0.187 HD
ENDBRANCH  16  21
ENDBRANCH  11  14
ENDBRANCH   9  11
ENDBRANCH   8   9
ENDBRANCH   7   8
TORSDOF 5
ENDMDL
MODEL 4
REMARK VINA RESULT:      -7.1      2.139      2.623
REMARK  5 active torsions:
REMARK  status: ('A' for Active; 'I' for Inactive)
REMARK    1  A    between atoms: C_7  and  C_8 
REMARK    2  A    between atoms: C_8  and  N_9 
REMARK    3  A    between atoms: N_9  and  S_10 
REMARK    4  A    between atoms: S_10  and  C_13 
REMARK    5  A    between atoms: C_15  and  C_20 
ROOT
HETATM    1  C   UNL     1      17.355  -5.680 -19.496  1.00  0.00     0.049 C 
HETATM    2  C   UNL     1      16.269  -5.373 -20.491  1.00  0.00    -0.054 A 
HETATM    3  C   UNL     1      15.769  -4.058 -20.539  1.00  0.00     0.007 A 
HETATM    4  C   UNL     1      14.736  -3.716 -21.413  1.00  0.00     0.001 A 
HETATM    5  C   UNL     1      14.195  -4.678 -22.254  1.00  0.00     0.001 A 
HETATM    6  C   UNL     1      14.679  -5.986 -22.222  1.00  0.00     0.009 A 
HETATM    7  C   UNL     1      15.714  -6.357 -21.340  1.00  0.00    -0.038 A 
ENDROOT
BRANCH   7   8
HETATM    8  C   UNL     1      16.114  -7.818 -21.286  1.00  0.00     0.143 C 
BRANCH   8   9
HETATM    9  N   UNL     1      15.111  -8.664 -20.621  1.00  0.00    -0.211 NA
HETATM   10  HN  UNL     1      14.901  -9.537 -21.108  1.00  0.00     0.140 HD
BRANCH   9  11
HETATM   11  S   UNL     1      15.329  -8.974 -18.979  1.00  0.00     0.242 S 
HETATM   12  O   UNL     1      14.576 -10.182 -18.718  1.00  0.00    -0.206 OA
HETATM   13  O   UNL     1      16.743  -8.918 -18.689  1.00  0.00    -0.206 OA
BRANCH  11  14
HETATM   14  C   UNL     1      14.488  -7.631 -18.135  1.00  0.00     0.081 C 
HETATM   15  C   UNL     1      13.514  -6.903 -18.862  1.00  0.00     0.039 C 
HETATM   16  C   UNL     1      12.688  -5.957 -18.226  1.00  0.00    -0.006 C 
HETATM   17  C   UNL     1      12.746  -5.883 -16.837  1.00  0.00     0.014 C 
HETATM   18  C   UNL     1      13.743  -6.541 -16.120  1.00  0.00     0.009 C 
HETATM   19  C   UNL     1      14.650  -7.399 -16.754  1.00  0.00    -0.039 C 
HETATM   20  C   UNL     1      15.692  -8.038 -15.882  1.00  0.00     0.050 C 
BRANCH  16  21
HETATM   21  C   UNL     1      11.754  -5.090 -19.039  1.00  0.00     0.065 A 
HETATM   22  C   UNL     1      11.921  -3.584 -19.046  1.00  0.00    -0.017 A 
HETATM   23  C   UNL     1      13.041  -2.863 -18.334  1.00  0.00     0.042 C 
HETATM   24  C   UNL     1      11.036  -2.890 -19.784  1.00  0.00     0.020 A 
HETATM   25  C   UNL     1      13.232  -1.397 -18.730  1.00  0.00     0.005 C 
HETATM   26  C   UNL     1      11.883  -0.705 -18.817  1.00  0.00     0.005 C 
HETATM   27  C   UNL     1      11.028  -1.381 -19.886  1.00  0.00     0.045 C 
HETATM   28  C   UNL     1       9.997  -3.580 -20.592  1.00  0.00     0.268 A 
HETATM   29  O   UNL     1       9.228  -2.919 -21.289  1.00  0.00    -0.266 OA
HETATM   30  N   UNL     1       9.990  -4.964 -20.515  1.00  0.00    -0.261 N 
HETATM   31  C   UNL     1       9.036  -5.720 -21.308  1.00  0.00     0.181 C 
HETATM   32  N   UNL     1      10.851  -5.705 -19.746  1.00  0.00    -0.295 N 
HETATM   33  HN  UNL     1      10.784  -6.722 -19.729  1.00  0.00     0.187 HD
ENDBRANCH  16  21
ENDBRANCH  11  14
ENDBRANCH   9  11
ENDBRANCH   8   9
ENDBRANCH   7   8
TORSDOF 5
ENDMDL
MODEL 5
REMARK VINA RESULT:      -7.0      2.807      4.454
REMARK  5 active torsions:
REMARK  status: ('A' for Active; 'I' for Inactive)
REMARK    1  A    between atoms: C_7  and  C_8 
REMARK    2  A    between atoms: C_8  and  N_9 
REMARK    3  A    between atoms: N_9  and  S_10 
REMARK    4  A    between atoms: S_10  and  C_13 
REMARK    5  A    between atoms: C_15  and  C_20 
ROOT
HETATM    1  C   UNL     1      17.616  -5.044 -18.953  1.00  0.00     0.049 C 
HETATM    2  C   UNL     1      16.645  -5.365 -20.055  1.00  0.00    -0.054 A 
HETATM    3  C   UNL     1      15.713  -4.376 -20.425  1.00  0.00     0.007 A 
HETATM    4  C   UNL     1      14.760  -4.622 -21.414  1.00  0.00     0.001 A 
HETATM    5  C   UNL     1      14.730  -5.855 -22.052  1.00  0.00     0.001 A 
HETATM    6  C   UNL     1      15.645  -6.846 -21.701  1.00  0.00     0.009 A 
HETATM    7  C   UNL     1      16.609  -6.623 -20.697  1.00  0.00    -0.038 A 
ENDROOT
BRANCH   7   8
HETATM    8  C   UNL     1      17.501  -7.782 -20.296  1.00  0.00     0.143 C 
BRANCH   8   9
HETATM    9  N   UNL     1      16.760  -9.038 -20.108  1.00  0.00    -0.211 NA
HETATM   10  HN  UNL     1      17.238  -9.870 -20.458  1.00  0.00     0.140 HD
BRANCH   9  11
HETATM   11  S   UNL     1      16.143  -9.349 -18.571  1.00  0.00     0.242 S 
HETATM   12  O   UNL     1      15.642 -10.705 -18.629  1.00  0.00    -0.206 OA
HETATM   13  O   UNL     1      17.145  -8.982 -17.596  1.00  0.00    -0.206 OA
BRANCH  11  14
HETATM   14  C   UNL     1      14.721  -8.264 -18.410  1.00  0.00     0.081 C 
HETATM   15  C   UNL     1      14.847  -7.136 -17.563  1.00  0.00     0.039 C 
HETATM   16  C   UNL     1      13.849  -6.144 -17.520  1.00  0.00    -0.006 C 
HETATM   17  C   UNL     1      12.820  -6.225 -18.455  1.00  0.00     0.014 C 
HETATM   18  C   UNL     1      12.650  -7.360 -19.243  1.00  0.00     0.009 C 
HETATM   19  C   UNL     1      13.574  -8.413 -19.215  1.00  0.00    -0.039 C 
HETATM   20  C   UNL     1      13.275  -9.592 -20.094  1.00  0.00     0.050 C 
BRANCH  16  21
HETATM   21  C   UNL     1      13.930  -5.022 -16.510  1.00  0.00     0.065 A 
HETATM   22  C   UNL     1      13.567  -3.607 -16.908  1.00  0.00    -0.017 A 
HETATM   23  C   UNL     1      13.035  -3.231 -18.272  1.00  0.00     0.042 C 
HETATM   24  C   UNL     1      13.683  -2.670 -15.950  1.00  0.00     0.020 A 
HETATM   25  C   UNL     1      12.418  -1.834 -18.372  1.00  0.00     0.005 C 
HETATM   26  C   UNL     1      13.296  -0.828 -17.649  1.00  0.00     0.005 C 
HETATM   27  C   UNL     1      13.395  -1.202 -16.172  1.00  0.00     0.045 C 
HETATM   28  C   UNL     1      14.087  -3.028 -14.566  1.00  0.00     0.268 A 
HETATM   29  O   UNL     1      14.145  -2.154 -13.702  1.00  0.00    -0.266 OA
HETATM   30  N   UNL     1      14.352  -4.370 -14.341  1.00  0.00    -0.261 N 
HETATM   31  C   UNL     1      14.710  -4.815 -13.005  1.00  0.00     0.181 C 
HETATM   32  N   UNL     1      14.281  -5.349 -15.299  1.00  0.00    -0.295 N 
HETATM   33  HN  UNL     1      14.498  -6.318 -15.067  1.00  0.00     0.187 HD
ENDBRANCH  16  21
ENDBRANCH  11  14
ENDBRANCH   9  11
ENDBRANCH   8   9
ENDBRANCH   7   8
TORSDOF 5
ENDMDL
MODEL 6
REMARK VINA RESULT:      -6.9      2.520      4.386
REMARK  5 active torsions:
REMARK  status: ('A' for Active; 'I' for Inactive)
REMARK    1  A    between atoms: C_7  and  C_8 
REMARK    2  A    between atoms: C_8  and  N_9 
REMARK    3  A    between atoms: N_9  and  S_10 
REMARK    4  A    between atoms: S_10  and  C_13 
REMARK    5  A    between atoms: C_15  and  C_20 
ROOT
HETATM    1  C   UNL     1      15.402  -6.590 -18.918  1.00  0.00     0.049 C 
HETATM    2  C   UNL     1      13.910  -6.471 -18.769  1.00  0.00    -0.054 A 
HETATM    3  C   UNL     1      13.106  -6.777 -19.884  1.00  0.00     0.007 A 
HETATM    4  C   UNL     1      11.718  -6.652 -19.825  1.00  0.00     0.001 A 
HETATM    5  C   UNL     1      11.113  -6.227 -18.650  1.00  0.00     0.001 A 
HETATM    6  C   UNL     1      11.891  -5.920 -17.534  1.00  0.00     0.009 A 
HETATM    7  C   UNL     1      13.296  -6.030 -17.575  1.00  0.00    -0.038 A 
ENDROOT
BRANCH   7   8
HETATM    8  C   UNL     1      14.081  -5.578 -16.359  1.00  0.00     0.143 C 
BRANCH   8   9
HETATM    9  N   UNL     1      13.423  -4.489 -15.623  1.00  0.00    -0.211 NA
HETATM   10  HN  UNL     1      13.037  -4.761 -14.717  1.00  0.00     0.140 HD
BRANCH   9  11
HETATM   11  S   UNL     1      14.271  -3.042 -15.460  1.00  0.00     0.242 S 
HETATM   12  O   UNL     1      13.768  -2.440 -14.245  1.00  0.00    -0.206 OA
HETATM   13  O   UNL     1      15.682  -3.324 -15.606  1.00  0.00    -0.206 OA
BRANCH  11  14
HETATM   14  C   UNL     1      13.718  -2.021 -16.829  1.00  0.00     0.081 C 
HETATM   15  C   UNL     1      12.938  -2.637 -17.838  1.00  0.00     0.039 C 
HETATM   16  C   UNL     1      12.318  -1.875 -18.847  1.00  0.00    -0.006 C 
HETATM   17  C   UNL     1      12.361  -0.489 -18.724  1.00  0.00     0.014 C 
HETATM   18  C   UNL     1      13.179   0.127 -17.779  1.00  0.00     0.009 C 
HETATM   19  C   UNL     1      13.897  -0.623 -16.837  1.00  0.00    -0.039 C 
HETATM   20  C   UNL     1      14.760   0.149 -15.882  1.00  0.00     0.050 C 
BRANCH  16  21
HETATM   21  C   UNL     1      11.608  -2.558 -19.993  1.00  0.00     0.065 A 
HETATM   22  C   UNL     1      12.403  -3.228 -21.095  1.00  0.00    -0.017 A 
HETATM   23  C   UNL     1      13.911  -3.334 -21.093  1.00  0.00     0.042 C 
HETATM   24  C   UNL     1      11.690  -3.798 -22.082  1.00  0.00     0.020 A 
HETATM   25  C   UNL     1      14.498  -4.323 -22.103  1.00  0.00     0.005 C 
HETATM   26  C   UNL     1      13.797  -4.174 -23.442  1.00  0.00     0.005 C 
HETATM   27  C   UNL     1      12.310  -4.484 -23.279  1.00  0.00     0.045 C 
HETATM   28  C   UNL     1      10.205  -3.815 -22.049  1.00  0.00     0.268 A 
HETATM   29  O   UNL     1       9.581  -4.379 -22.947  1.00  0.00    -0.266 OA
HETATM   30  N   UNL     1       9.616  -3.194 -20.958  1.00  0.00    -0.261 N 
HETATM   31  C   UNL     1       8.169  -3.204 -20.823  1.00  0.00     0.181 C 
HETATM   32  N   UNL     1      10.307  -2.571 -19.951  1.00  0.00    -0.295 N 
HETATM   33  HN  UNL     1       9.810  -2.125 -19.180  1.00  0.00     0.187 HD
ENDBRANCH  16  21
ENDBRANCH  11  14
ENDBRANCH   9  11
ENDBRANCH   8   9
ENDBRANCH   7   8
TORSDOF 5
ENDMDL
MODEL 7
REMARK VINA RESULT:      -6.9      3.950      6.437
REMARK  5 active torsions:
REMARK  status: ('A' for Active; 'I' for Inactive)
REMARK    1  A    between atoms: C_7  and  C_8 
REMARK    2  A    between atoms: C_8  and  N_9 
REMARK    3  A    between atoms: N_9  and  S_10 
REMARK    4  A    between atoms: S_10  and  C_13 
REMARK    5  A    between atoms: C_15  and  C_20 
ROOT
HETATM    1  C   UNL     1      19.270  -3.160 -17.424  1.00  0.00     0.049 C 
HETATM    2  C   UNL     1      18.438  -4.329 -17.877  1.00  0.00    -0.054 A 
HETATM    3  C   UNL     1      18.246  -4.507 -19.261  1.00  0.00     0.007 A 
HETATM    4  C   UNL     1      17.455  -5.549 -19.746  1.00  0.00     0.001 A 
HETATM    5  C   UNL     1      16.853  -6.430 -18.859  1.00  0.00     0.001 A 
HETATM    6  C   UNL     1      17.033  -6.271 -17.485  1.00  0.00     0.009 A 
HETATM    7  C   UNL     1      17.819  -5.220 -16.972  1.00  0.00    -0.038 A 
ENDROOT
BRANCH   7   8
HETATM    8  C   UNL     1      17.882  -5.047 -15.467  1.00  0.00     0.143 C 
BRANCH   8   9
HETATM    9  N   UNL     1      16.568  -4.775 -14.865  1.00  0.00    -0.211 NA
HETATM   10  HN  UNL     1      16.394  -5.265 -13.985  1.00  0.00     0.140 HD
BRANCH   9  11
HETATM   11  S   UNL     1      16.109  -3.161 -14.710  1.00  0.00     0.242 S 
HETATM   12  O   UNL     1      14.972  -3.173 -13.815  1.00  0.00    -0.206 OA
HETATM   13  O   UNL     1      17.283  -2.383 -14.388  1.00  0.00    -0.206 OA
BRANCH  11  14
HETATM   14  C   UNL     1      15.503  -2.691 -16.333  1.00  0.00     0.081 C 
HETATM   15  C   UNL     1      16.084  -1.555 -16.950  1.00  0.00     0.039 C 
HETATM   16  C   UNL     1      15.795  -1.226 -18.288  1.00  0.00    -0.006 C 
HETATM   17  C   UNL     1      15.053  -2.141 -19.030  1.00  0.00     0.014 C 
HETATM   18  C   UNL     1      14.422  -3.222 -18.420  1.00  0.00     0.009 C 
HETATM   19  C   UNL     1      14.606  -3.500 -17.059  1.00  0.00    -0.039 C 
HETATM   20  C   UNL     1      13.859  -4.680 -16.508  1.00  0.00     0.050 C 
BRANCH  16  21
HETATM   21  C   UNL     1      16.310   0.064 -18.885  1.00  0.00     0.065 A 
HETATM   22  C   UNL     1      17.506   0.052 -19.815  1.00  0.00    -0.017 A 
HETATM   23  C   UNL     1      18.201  -1.212 -20.268  1.00  0.00     0.042 C 
HETATM   24  C   UNL     1      17.905   1.245 -20.288  1.00  0.00     0.020 A 
HETATM   25  C   UNL     1      19.157  -1.044 -21.451  1.00  0.00     0.005 C 
HETATM   26  C   UNL     1      20.002   0.204 -21.261  1.00  0.00     0.005 C 
HETATM   27  C   UNL     1      19.096   1.431 -21.202  1.00  0.00     0.045 C 
HETATM   28  C   UNL     1      17.167   2.492 -19.957  1.00  0.00     0.268 A 
HETATM   29  O   UNL     1      17.534   3.563 -20.437  1.00  0.00    -0.266 OA
HETATM   30  N   UNL     1      16.070   2.342 -19.123  1.00  0.00    -0.261 N 
HETATM   31  C   UNL     1      15.264   3.503 -18.785  1.00  0.00     0.181 C 
HETATM   32  N   UNL     1      15.653   1.149 -18.592  1.00  0.00    -0.295 N 
HETATM   33  HN  UNL     1      14.841   1.111 -17.977  1.00  0.00     0.187 HD
ENDBRANCH  16  21
ENDBRANCH  11  14
ENDBRANCH   9  11
ENDBRANCH   8   9
ENDBRANCH   7   8
TORSDOF 5
ENDMDL
MODEL 8
REMARK VINA RESULT:      -6.8      2.538      3.766
REMARK  5 active torsions:
REMARK  status: ('A' for Active; 'I' for Inactive)
REMARK    1  A    between atoms: C_7  and  C_8 
REMARK    2  A    between atoms: C_8  and  N_9 
REMARK    3  A    between atoms: N_9  and  S_10 
REMARK    4  A    between atoms: S_10  and  C_13 
REMARK    5  A    between atoms: C_15  and  C_20 
ROOT
HETATM    1  C   UNL     1      14.435  -7.640 -23.673  1.00  0.00     0.049 C 
HETATM    2  C   UNL     1      14.495  -6.317 -22.959  1.00  0.00    -0.054 A 
HETATM    3  C   UNL     1      13.807  -5.227 -23.524  1.00  0.00     0.007 A 
HETATM    4  C   UNL     1      13.853  -3.965 -22.932  1.00  0.00     0.001 A 
HETATM    5  C   UNL     1      14.580  -3.776 -21.764  1.00  0.00     0.001 A 
HETATM    6  C   UNL     1      15.267  -4.844 -21.188  1.00  0.00     0.009 A 
HETATM    7  C   UNL     1      15.243  -6.125 -21.775  1.00  0.00    -0.038 A 
ENDROOT
BRANCH   7   8
HETATM    8  C   UNL     1      16.099  -7.210 -21.151  1.00  0.00     0.143 C 
BRANCH   8   9
HETATM    9  N   UNL     1      15.332  -8.122 -20.289  1.00  0.00    -0.211 NA
HETATM   10  HN  UNL     1      14.938  -8.932 -20.771  1.00  0.00     0.140 HD
BRANCH   9  11
HETATM   11  S   UNL     1      16.058  -8.621 -18.853  1.00  0.00     0.242 S 
HETATM   12  O   UNL     1      15.325  -9.800 -18.446  1.00  0.00    -0.206 OA
HETATM   13  O   UNL     1      17.486  -8.685 -19.064  1.00  0.00    -0.206 OA
BRANCH  11  14
HETATM   14  C   UNL     1      15.683  -7.326 -17.666  1.00  0.00     0.081 C 
HETATM   15  C   UNL     1      14.818  -6.283 -18.080  1.00  0.00     0.039 C 
HETATM   16  C   UNL     1      14.335  -5.332 -17.162  1.00  0.00    -0.006 C 
HETATM   17  C   UNL     1      14.599  -5.547 -15.812  1.00  0.00     0.014 C 
HETATM   18  C   UNL     1      15.501  -6.526 -15.401  1.00  0.00     0.009 C 
HETATM   19  C   UNL     1      16.084  -7.411 -16.318  1.00  0.00    -0.039 C 
HETATM   20  C   UNL     1      17.055  -8.411 -15.760  1.00  0.00     0.050 C 
BRANCH  16  21
HETATM   21  C   UNL     1      13.530  -4.146 -17.644  1.00  0.00     0.065 A 
HETATM   22  C   UNL     1      12.479  -4.322 -18.721  1.00  0.00    -0.017 A 
HETATM   23  C   UNL     1      12.108  -5.660 -19.318  1.00  0.00     0.042 C 
HETATM   24  C   UNL     1      11.822  -3.211 -19.099  1.00  0.00     0.020 A 
HETATM   25  C   UNL     1      10.813  -5.676 -20.133  1.00  0.00     0.005 C 
HETATM   26  C   UNL     1      10.752  -4.454 -21.033  1.00  0.00     0.005 C 
HETATM   27  C   UNL     1      10.763  -3.188 -20.179  1.00  0.00     0.045 C 
HETATM   28  C   UNL     1      12.080  -1.903 -18.445  1.00  0.00     0.268 A 
HETATM   29  O   UNL     1      11.433  -0.913 -18.785  1.00  0.00    -0.266 OA
HETATM   30  N   UNL     1      13.044  -1.903 -17.449  1.00  0.00    -0.261 N 
HETATM   31  C   UNL     1      13.327  -0.675 -16.726  1.00  0.00     0.181 C 
HETATM   32  N   UNL     1      13.761  -3.006 -17.060  1.00  0.00    -0.295 N 
HETATM   33  HN  UNL     1      14.464  -2.934 -16.325  1.00  0.00     0.187 HD
ENDBRANCH  16  21
ENDBRANCH  11  14
ENDBRANCH   9  11
ENDBRANCH   8   9
ENDBRANCH   7   8
TORSDOF 5
ENDMDL
MODEL 9
REMARK VINA RESULT:      -6.8      2.537      3.538
REMARK  5 active torsions:
REMARK  status: ('A' for Active; 'I' for Inactive)
REMARK    1  A    between atoms: C_7  and  C_8 
REMARK    2  A    between atoms: C_8  and  N_9 
REMARK    3  A    between atoms: N_9  and  S_10 
REMARK    4  A    between atoms: S_10  and  C_13 
REMARK    5  A    between atoms: C_15  and  C_20 
ROOT
HETATM    1  C   UNL     1      15.667  -3.703 -20.782  1.00  0.00     0.049 C 
HETATM    2  C   UNL     1      14.780  -4.420 -21.764  1.00  0.00    -0.054 A 
HETATM    3  C   UNL     1      13.748  -3.688 -22.381  1.00  0.00     0.007 A 
HETATM    4  C   UNL     1      12.867  -4.301 -23.272  1.00  0.00     0.001 A 
HETATM    5  C   UNL     1      13.009  -5.651 -23.565  1.00  0.00     0.001 A 
HETATM    6  C   UNL     1      14.026  -6.392 -22.964  1.00  0.00     0.009 A 
HETATM    7  C   UNL     1      14.921  -5.796 -22.053  1.00  0.00    -0.038 A 
ENDROOT
BRANCH   7   8
HETATM    8  C   UNL     1      15.933  -6.688 -21.361  1.00  0.00     0.143 C 
BRANCH   8   9
HETATM    9  N   UNL     1      15.312  -7.818 -20.654  1.00  0.00    -0.211 NA
HETATM   10  HN  UNL     1      15.119  -8.632 -21.240  1.00  0.00     0.140 HD
BRANCH   9  11
HETATM   11  S   UNL     1      16.034  -8.321 -19.216  1.00  0.00     0.242 S 
HETATM   12  O   UNL     1      15.418  -9.592 -18.906  1.00  0.00    -0.206 OA
HETATM   13  O   UNL     1      17.468  -8.222 -19.369  1.00  0.00    -0.206 OA
BRANCH  11  14
HETATM   14  C   UNL     1      15.479  -7.144 -17.979  1.00  0.00     0.081 C 
HETATM   15  C   UNL     1      14.645  -6.082 -18.407  1.00  0.00     0.039 C 
HETATM   16  C   UNL     1      14.025  -5.224 -17.479  1.00  0.00    -0.006 C 
HETATM   17  C   UNL     1      14.124  -5.556 -16.130  1.00  0.00     0.014 C 
HETATM   18  C   UNL     1      14.993  -6.553 -15.695  1.00  0.00     0.009 C 
HETATM   19  C   UNL     1      15.710  -7.343 -16.603  1.00  0.00    -0.039 C 
HETATM   20  C   UNL     1      16.630  -8.374 -16.016  1.00  0.00     0.050 C 
BRANCH  16  21
HETATM   21  C   UNL     1      13.255  -4.013 -17.955  1.00  0.00     0.065 A 
HETATM   22  C   UNL     1      12.131  -4.167 -18.959  1.00  0.00    -0.017 A 
HETATM   23  C   UNL     1      11.655  -5.502 -19.484  1.00  0.00     0.042 C 
HETATM   24  C   UNL     1      11.512  -3.035 -19.337  1.00  0.00     0.020 A 
HETATM   25  C   UNL     1      10.312  -5.474 -20.218  1.00  0.00     0.005 C 
HETATM   26  C   UNL     1      10.260  -4.281 -21.157  1.00  0.00     0.005 C 
HETATM   27  C   UNL     1      10.391  -2.990 -20.352  1.00  0.00     0.045 C 
HETATM   28  C   UNL     1      11.878  -1.721 -18.748  1.00  0.00     0.268 A 
HETATM   29  O   UNL     1      11.265  -0.709 -19.085  1.00  0.00    -0.266 OA
HETATM   30  N   UNL     1      12.901  -1.742 -17.812  1.00  0.00    -0.261 N 
HETATM   31  C   UNL     1      13.293  -0.508 -17.153  1.00  0.00     0.181 C 
HETATM   32  N   UNL     1      13.581  -2.868 -17.428  1.00  0.00    -0.295 N 
HETATM   33  HN  UNL     1      14.332  -2.811 -16.740  1.00  0.00     0.187 HD
ENDBRANCH  16  21
ENDBRANCH  11  14
ENDBRANCH   9  11
ENDBRANCH   8   9
ENDBRANCH   7   8
TORSDOF 5
ENDMDL
