MODEL 1
REMARK VINA RESULT:      -8.6      0.000      0.000
REMARK  5 active torsions:
REMARK  status: ('A' for Active; 'I' for Inactive)
REMARK    1  A    between atoms: C_7  and  C_8 
REMARK    2  A    between atoms: C_8  and  N_9 
REMARK       I    between atoms: N_9  and  C_10 
REMARK    3  A    between atoms: N_9  and  C_13 
REMARK    4  A    between atoms: N_16  and  C_17 
REMARK    5  A    between atoms: C_17  and  C_19 
REMARK       I    between atoms: C_19  and  N_21 
ROOT
HETATM    1  C   UNL     1      16.140  -9.687 -18.574  1.00  0.00     0.049 C 
HETATM    2  C   UNL     1      16.504  -8.310 -19.050  1.00  0.00    -0.054 A 
HETATM    3  C   UNL     1      17.686  -8.171 -19.809  1.00  0.00     0.007 A 
HETATM    4  C   UNL     1      18.145  -6.922 -20.230  1.00  0.00     0.001 A 
HETATM    5  C   UNL     1      17.439  -5.783 -19.881  1.00  0.00     0.001 A 
HETATM    6  C   UNL     1      16.242  -5.909 -19.182  1.00  0.00     0.009 A 
HETATM    7  C   UNL     1      15.730  -7.166 -18.777  1.00  0.00    -0.034 A 
ENDROOT
BRANCH   7   8
HETATM    8  C   UNL     1      14.303  -7.145 -18.232  1.00  0.00     0.172 C 
BRANCH   8   9
HETATM    9  N   UNL     1      13.887  -6.121 -17.266  1.00  0.00    -0.295 N 
HETATM   10  C   UNL     1      13.911  -6.539 -15.924  1.00  0.00     0.221 C 
HETATM   11  O   UNL     1      14.167  -7.699 -15.586  1.00  0.00    -0.273 OA
HETATM   12  C   UNL     1      13.593  -5.541 -14.835  1.00  0.00     0.117 C 
BRANCH   9  13
HETATM   13  C   UNL     1      13.172  -4.991 -17.712  1.00  0.00     0.180 C 
HETATM   14  C   UNL     1      11.905  -5.200 -18.558  1.00  0.00     0.293 C 
HETATM   15  O   UNL     1      11.091  -6.075 -18.302  1.00  0.00    -0.264 OA
HETATM   16  N   UNL     1      11.791  -4.283 -19.609  1.00  0.00    -0.296 N 
HETATM   17  C   UNL     1      12.021  -2.928 -19.195  1.00  0.00     0.065 A 
HETATM   18  C   UNL     1      11.355  -1.829 -19.744  1.00  0.00     0.032 A 
HETATM   19  C   UNL     1      12.852  -2.731 -18.063  1.00  0.00     0.061 A 
HETATM   20  C   UNL     1      11.457  -0.569 -19.136  1.00  0.00     0.002 A 
HETATM   21  C   UNL     1      12.268  -0.385 -18.017  1.00  0.00     0.002 A 
HETATM   22  C   UNL     1      12.979  -1.463 -17.499  1.00  0.00     0.032 A 
HETATM   23  N   UNL     1      13.580  -3.786 -17.486  1.00  0.00    -0.336 N 
HETATM   24  HN  UNL     1      14.401  -3.606 -16.909  1.00  0.00     0.168 HD
BRANCH  16  25
HETATM   25  C   UNL     1      10.956  -4.659 -20.779  1.00  0.00     0.182 C 
HETATM   26  C   UNL     1       9.621  -3.892 -20.694  1.00  0.00     0.043 C 
BRANCH  25  27
HETATM   27  C   UNL     1      11.721  -4.411 -22.103  1.00  0.00     0.247 C 
HETATM   28  O   UNL     1      11.425  -3.421 -22.784  1.00  0.00    -0.271 OA
HETATM   29  N   UNL     1      12.746  -5.269 -22.468  1.00  0.00    -0.315 N 
HETATM   30  C   UNL     1      13.496  -6.255 -21.658  1.00  0.00     0.137 C 
HETATM   31  C   UNL     1      13.290  -5.301 -23.773  1.00  0.00     0.043 A 
HETATM   32  C   UNL     1      14.357  -7.093 -22.616  1.00  0.00     0.061 C 
HETATM   33  C   UNL     1      14.178  -6.367 -23.906  1.00  0.00    -0.030 A 
HETATM   34  C   UNL     1      14.721  -6.694 -25.140  1.00  0.00     0.009 A 
HETATM   35  C   UNL     1      14.394  -5.902 -26.243  1.00  0.00     0.001 A 
HETATM   36  C   UNL     1      13.550  -4.797 -26.100  1.00  0.00     0.002 A 
HETATM   37  C   UNL     1      12.988  -4.496 -24.859  1.00  0.00     0.030 A 
ENDBRANCH  25  27
ENDBRANCH  16  25
ENDBRANCH   9  13
ENDBRANCH   8   9
ENDBRANCH   7   8
TORSDOF 5
ENDMDL
MODEL 2
REMARK VINA RESULT:      -8.3      1.408      3.407
REMARK  5 active torsions:
REMARK  status: ('A' for Active; 'I' for Inactive)
REMARK    1  A    between atoms: C_7  and  C_8 
REMARK    2  A    between atoms: C_8  and  N_9 
REMARK       I    between atoms: N_9  and  C_10 
REMARK    3  A    between atoms: N_9  and  C_13 
REMARK    4  A    between atoms: N_16  and  C_17 
REMARK    5  A    between atoms: C_17  and  C_19 
REMARK       I    between atoms: C_19  and  N_21 
ROOT
HETATM    1  C   UNL     1      16.764  -4.314 -14.792  1.00  0.00     0.049 C 
HETATM    2  C   UNL     1      15.307  -4.447 -14.454  1.00  0.00    -0.054 A 
HETATM    3  C   UNL     1      14.770  -3.551 -13.504  1.00  0.00     0.007 A 
HETATM    4  C   UNL     1      13.447  -3.647 -13.071  1.00  0.00     0.001 A 
HETATM    5  C   UNL     1      12.639  -4.657 -13.564  1.00  0.00     0.001 A 
HETATM    6  C   UNL     1      13.137  -5.513 -14.543  1.00  0.00     0.009 A 
HETATM    7  C   UNL     1      14.463  -5.414 -15.031  1.00  0.00    -0.034 A 
ENDROOT
BRANCH   7   8
HETATM    8  C   UNL     1      14.771  -6.270 -16.259  1.00  0.00     0.172 C 
BRANCH   8   9
HETATM    9  N   UNL     1      14.888  -5.656 -17.587  1.00  0.00    -0.295 N 
HETATM   10  C   UNL     1      16.138  -5.833 -18.205  1.00  0.00     0.221 C 
HETATM   11  O   UNL     1      17.095  -6.376 -17.644  1.00  0.00    -0.273 OA
HETATM   12  C   UNL     1      16.343  -5.325 -19.614  1.00  0.00     0.117 C 
BRANCH   9  13
HETATM   13  C   UNL     1      13.961  -4.671 -17.984  1.00  0.00     0.180 C 
HETATM   14  C   UNL     1      12.691  -5.105 -18.734  1.00  0.00     0.293 C 
HETATM   15  O   UNL     1      12.058  -6.101 -18.415  1.00  0.00    -0.264 OA
HETATM   16  N   UNL     1      12.347  -4.238 -19.778  1.00  0.00    -0.296 N 
HETATM   17  C   UNL     1      12.373  -2.857 -19.387  1.00  0.00     0.065 A 
HETATM   18  C   UNL     1      11.491  -1.896 -19.891  1.00  0.00     0.032 A 
HETATM   19  C   UNL     1      13.236  -2.504 -18.320  1.00  0.00     0.061 A 
HETATM   20  C   UNL     1      11.421  -0.627 -19.296  1.00  0.00     0.002 A 
HETATM   21  C   UNL     1      12.267  -0.290 -18.242  1.00  0.00     0.002 A 
HETATM   22  C   UNL     1      13.186  -1.223 -17.772  1.00  0.00     0.032 A 
HETATM   23  N   UNL     1      14.173  -3.410 -17.793  1.00  0.00    -0.336 N 
HETATM   24  HN  UNL     1      14.991  -3.084 -17.279  1.00  0.00     0.168 HD
BRANCH  16  25
HETATM   25  C   UNL     1      11.507  -4.769 -20.881  1.00  0.00     0.182 C 
HETATM   26  C   UNL     1      10.097  -4.155 -20.763  1.00  0.00     0.043 C 
BRANCH  25  27
HETATM   27  C   UNL     1      12.174  -4.508 -22.255  1.00  0.00     0.247 C 
HETATM   28  O   UNL     1      11.877  -3.479 -22.874  1.00  0.00    -0.271 OA
HETATM   29  N   UNL     1      13.119  -5.403 -22.734  1.00  0.00    -0.315 N 
HETATM   30  C   UNL     1      13.878  -6.456 -22.024  1.00  0.00     0.137 C 
HETATM   31  C   UNL     1      13.552  -5.410 -24.080  1.00  0.00     0.043 A 
HETATM   32  C   UNL     1      14.612  -7.298 -23.079  1.00  0.00     0.061 C 
HETATM   33  C   UNL     1      14.367  -6.514 -24.324  1.00  0.00    -0.030 A 
HETATM   34  C   UNL     1      14.791  -6.819 -25.609  1.00  0.00     0.009 A 
HETATM   35  C   UNL     1      14.418  -5.969 -26.653  1.00  0.00     0.001 A 
HETATM   36  C   UNL     1      13.648  -4.829 -26.401  1.00  0.00     0.002 A 
HETATM   37  C   UNL     1      13.206  -4.548 -25.108  1.00  0.00     0.030 A 
ENDBRANCH  25  27
ENDBRANCH  16  25
ENDBRANCH   9  13
ENDBRANCH   8   9
ENDBRANCH   7   8
TORSDOF 5
ENDMDL
MODEL 3
REMARK VINA RESULT:      -8.3      1.052      1.460
REMARK  5 active torsions:
REMARK  status: ('A' for Active; 'I' for Inactive)
REMARK    1  A    between atoms: C_7  and  C_8 
REMARK    2  A    between atoms: C_8  and  N_9 
REMARK       I    between atoms: N_9  and  C_10 
REMARK    3  A    between atoms: N_9  and  C_13 
REMARK    4  A    between atoms: N_16  and  C_17 
REMARK    5  A    between atoms: C_17  and  C_19 
REMARK       I    between atoms: C_19  and  N_21 
ROOT
HETATM    1  C   UNL     1      16.969  -6.565 -20.352  1.00  0.00     0.049 C 
HETATM    2  C   UNL     1      17.307  -5.660 -19.202  1.00  0.00    -0.054 A 
HETATM    3  C   UNL     1      18.417  -4.801 -19.349  1.00  0.00     0.007 A 
HETATM    4  C   UNL     1      18.853  -3.980 -18.308  1.00  0.00     0.001 A 
HETATM    5  C   UNL     1      18.197  -4.018 -17.090  1.00  0.00     0.001 A 
HETATM    6  C   UNL     1      17.066  -4.817 -16.947  1.00  0.00     0.009 A 
HETATM    7  C   UNL     1      16.577  -5.630 -17.999  1.00  0.00    -0.034 A 
ENDROOT
BRANCH   7   8
HETATM    8  C   UNL     1      15.205  -6.257 -17.755  1.00  0.00     0.172 C 
BRANCH   8   9
HETATM    9  N   UNL     1      14.220  -5.588 -16.897  1.00  0.00    -0.295 N 
HETATM   10  C   UNL     1      13.891  -6.290 -15.725  1.00  0.00     0.221 C 
HETATM   11  O   UNL     1      14.320  -7.422 -15.477  1.00  0.00    -0.273 OA
HETATM   12  C   UNL     1      12.959  -5.654 -14.720  1.00  0.00     0.117 C 
BRANCH   9  13
HETATM   13  C   UNL     1      13.424  -4.551 -17.427  1.00  0.00     0.180 C 
HETATM   14  C   UNL     1      12.219  -4.917 -18.308  1.00  0.00     0.293 C 
HETATM   15  O   UNL     1      11.478  -5.851 -18.040  1.00  0.00    -0.264 OA
HETATM   16  N   UNL     1      12.066  -4.065 -19.408  1.00  0.00    -0.296 N 
HETATM   17  C   UNL     1      12.153  -2.676 -19.054  1.00  0.00     0.065 A 
HETATM   18  C   UNL     1      11.413  -1.671 -19.683  1.00  0.00     0.032 A 
HETATM   19  C   UNL     1      12.913  -2.350 -17.903  1.00  0.00     0.061 A 
HETATM   20  C   UNL     1      11.374  -0.380 -19.135  1.00  0.00     0.002 A 
HETATM   21  C   UNL     1      12.116  -0.069 -17.998  1.00  0.00     0.002 A 
HETATM   22  C   UNL     1      12.900  -1.051 -17.399  1.00  0.00     0.032 A 
HETATM   23  N   UNL     1      13.710  -3.304 -17.246  1.00  0.00    -0.336 N 
HETATM   24  HN  UNL     1      14.486  -3.021 -16.647  1.00  0.00     0.168 HD
BRANCH  16  25
HETATM   25  C   UNL     1      11.320  -4.571 -20.588  1.00  0.00     0.182 C 
HETATM   26  C   UNL     1       9.971  -3.828 -20.671  1.00  0.00     0.043 C 
BRANCH  25  27
HETATM   27  C   UNL     1      12.171  -4.438 -21.876  1.00  0.00     0.247 C 
HETATM   28  O   UNL     1      12.124  -3.379 -22.513  1.00  0.00    -0.271 OA
HETATM   29  N   UNL     1      12.998  -5.484 -22.256  1.00  0.00    -0.315 N 
HETATM   30  C   UNL     1      13.484  -6.645 -21.477  1.00  0.00     0.137 C 
HETATM   31  C   UNL     1      13.572  -5.576 -23.544  1.00  0.00     0.043 A 
HETATM   32  C   UNL     1      14.178  -7.607 -22.452  1.00  0.00     0.061 C 
HETATM   33  C   UNL     1      14.211  -6.804 -23.708  1.00  0.00    -0.030 A 
HETATM   34  C   UNL     1      14.718  -7.187 -24.941  1.00  0.00     0.009 A 
HETATM   35  C   UNL     1      14.613  -6.295 -26.010  1.00  0.00     0.001 A 
HETATM   36  C   UNL     1      14.025  -5.039 -25.834  1.00  0.00     0.002 A 
HETATM   37  C   UNL     1      13.495  -4.676 -24.596  1.00  0.00     0.030 A 
ENDBRANCH  25  27
ENDBRANCH  16  25
ENDBRANCH   9  13
ENDBRANCH   8   9
ENDBRANCH   7   8
TORSDOF 5
ENDMDL
MODEL 4
REMARK VINA RESULT:      -8.2      2.938      4.812
REMARK  5 active torsions:
REMARK  status: ('A' for Active; 'I' for Inactive)
REMARK    1  A    between atoms: C_7  and  C_8 
REMARK    2  A    between atoms: C_8  and  N_9 
REMARK       I    between atoms: N_9  and  C_10 
REMARK    3  A    between atoms: N_9  and  C_13 
REMARK    4  A    between atoms: N_16  and  C_17 
REMARK    5  A    between atoms: C_17  and  C_19 
REMARK       I    between atoms: C_19  and  N_21 
ROOT
HETATM    1  C   UNL     1      15.768  -6.485 -18.186  1.00  0.00     0.049 C 
HETATM    2  C   UNL     1      14.280  -6.299 -18.243  1.00  0.00    -0.054 A 
HETATM    3  C   UNL     1      13.648  -6.443 -19.497  1.00  0.00     0.007 A 
HETATM    4  C   UNL     1      12.281  -6.214 -19.661  1.00  0.00     0.001 A 
HETATM    5  C   UNL     1      11.521  -5.816 -18.576  1.00  0.00     0.001 A 
HETATM    6  C   UNL     1      12.118  -5.724 -17.321  1.00  0.00     0.009 A 
HETATM    7  C   UNL     1      13.494  -5.989 -17.116  1.00  0.00    -0.034 A 
ENDROOT
BRANCH   7   8
HETATM    8  C   UNL     1      13.932  -6.072 -15.655  1.00  0.00     0.172 C 
BRANCH   8   9
HETATM    9  N   UNL     1      14.363  -4.867 -14.936  1.00  0.00    -0.295 N 
HETATM   10  C   UNL     1      13.476  -4.434 -13.935  1.00  0.00     0.221 C 
HETATM   11  O   UNL     1      12.377  -4.963 -13.736  1.00  0.00    -0.273 OA
HETATM   12  C   UNL     1      13.861  -3.260 -13.065  1.00  0.00     0.117 C 
BRANCH   9  13
HETATM   13  C   UNL     1      15.365  -4.045 -15.490  1.00  0.00     0.180 C 
HETATM   14  C   UNL     1      14.946  -2.829 -16.333  1.00  0.00     0.293 C 
HETATM   15  O   UNL     1      14.011  -2.109 -16.013  1.00  0.00    -0.264 OA
HETATM   16  N   UNL     1      15.750  -2.642 -17.463  1.00  0.00    -0.296 N 
HETATM   17  C   UNL     1      17.153  -2.713 -17.166  1.00  0.00     0.065 A 
HETATM   18  C   UNL     1      18.121  -1.944 -17.820  1.00  0.00     0.032 A 
HETATM   19  C   UNL     1      17.537  -3.489 -16.043  1.00  0.00     0.061 A 
HETATM   20  C   UNL     1      19.431  -1.894 -17.323  1.00  0.00     0.002 A 
HETATM   21  C   UNL     1      19.799  -2.653 -16.214  1.00  0.00     0.002 A 
HETATM   22  C   UNL     1      18.855  -3.464 -15.592  1.00  0.00     0.032 A 
HETATM   23  N   UNL     1      16.623  -4.313 -15.365  1.00  0.00    -0.336 N 
HETATM   24  HN  UNL     1      16.942  -5.096 -14.793  1.00  0.00     0.168 HD
BRANCH  16  25
HETATM   25  C   UNL     1      15.185  -1.882 -18.606  1.00  0.00     0.182 C 
HETATM   26  C   UNL     1      16.141  -0.718 -18.942  1.00  0.00     0.043 C 
BRANCH  25  27
HETATM   27  C   UNL     1      14.917  -2.818 -19.811  1.00  0.00     0.247 C 
HETATM   28  O   UNL     1      15.843  -3.520 -20.236  1.00  0.00    -0.271 OA
HETATM   29  N   UNL     1      13.642  -2.886 -20.350  1.00  0.00    -0.315 N 
HETATM   30  C   UNL     1      12.346  -2.444 -19.787  1.00  0.00     0.137 C 
HETATM   31  C   UNL     1      13.373  -3.470 -21.609  1.00  0.00     0.043 A 
HETATM   32  C   UNL     1      11.292  -2.547 -20.900  1.00  0.00     0.061 C 
HETATM   33  C   UNL     1      12.048  -3.248 -21.977  1.00  0.00    -0.030 A 
HETATM   34  C   UNL     1      11.589  -3.595 -23.240  1.00  0.00     0.009 A 
HETATM   35  C   UNL     1      12.475  -4.214 -24.123  1.00  0.00     0.001 A 
HETATM   36  C   UNL     1      13.790  -4.491 -23.734  1.00  0.00     0.002 A 
HETATM   37  C   UNL     1      14.246  -4.113 -22.472  1.00  0.00     0.030 A 
ENDBRANCH  25  27
ENDBRANCH  16  25
ENDBRANCH   9  13
ENDBRANCH   8   9
ENDBRANCH   7   8
TORSDOF 5
ENDMDL
MODEL 5
REMARK VINA RESULT:      -8.1      2.956      6.543
REMARK  5 active torsions:
REMARK  status: ('A' for Active; 'I' for Inactive)
REMARK    1  A    between atoms: C_7  and  C_8 
REMARK    2  A    between atoms: C_8  and  N_9 
REMARK       I    between atoms: N_9  and  C_10 
REMARK    3  A    between atoms: N_9  and  C_13 
REMARK    4  A    between atoms: N_16  and  C_17 
REMARK    5  A    between atoms: C_17  and  C_19 
REMARK       I    between atoms: C_19  and  N_21 
ROOT
HETATM    1  C   UNL     1      14.398  -3.812 -22.035  1.00  0.00     0.049 C 
HETATM    2  C   UNL     1      13.413  -3.226 -21.065  1.00  0.00    -0.054 A 
HETATM    3  C   UNL     1      12.041  -3.460 -21.303  1.00  0.00     0.007 A 
HETATM    4  C   UNL     1      11.050  -2.892 -20.500  1.00  0.00     0.001 A 
HETATM    5  C   UNL     1      11.412  -2.062 -19.454  1.00  0.00     0.001 A 
HETATM    6  C   UNL     1      12.762  -1.868 -19.172  1.00  0.00     0.009 A 
HETATM    7  C   UNL     1      13.790  -2.462 -19.944  1.00  0.00    -0.034 A 
ENDROOT
BRANCH   7   8
HETATM    8  C   UNL     1      15.197  -2.339 -19.363  1.00  0.00     0.172 C 
BRANCH   8   9
HETATM    9  N   UNL     1      15.417  -1.668 -18.076  1.00  0.00    -0.295 N 
HETATM   10  C   UNL     1      15.974  -0.381 -18.174  1.00  0.00     0.221 C 
HETATM   11  O   UNL     1      16.339   0.113 -19.246  1.00  0.00    -0.273 OA
HETATM   12  C   UNL     1      16.157   0.441 -16.920  1.00  0.00     0.117 C 
BRANCH   9  13
HETATM   13  C   UNL     1      15.426  -2.426 -16.887  1.00  0.00     0.180 C 
HETATM   14  C   UNL     1      16.591  -3.397 -16.634  1.00  0.00     0.293 C 
HETATM   15  O   UNL     1      17.749  -3.103 -16.894  1.00  0.00    -0.264 OA
HETATM   16  N   UNL     1      16.180  -4.610 -16.069  1.00  0.00    -0.296 N 
HETATM   17  C   UNL     1      15.291  -4.435 -14.956  1.00  0.00     0.065 A 
HETATM   18  C   UNL     1      15.271  -5.279 -13.842  1.00  0.00     0.032 A 
HETATM   19  C   UNL     1      14.513  -3.249 -14.932  1.00  0.00     0.061 A 
HETATM   20  C   UNL     1      14.547  -4.916 -12.698  1.00  0.00     0.002 A 
HETATM   21  C   UNL     1      13.792  -3.744 -12.678  1.00  0.00     0.002 A 
HETATM   22  C   UNL     1      13.761  -2.927 -13.804  1.00  0.00     0.032 A 
HETATM   23  N   UNL     1      14.458  -2.377 -16.032  1.00  0.00    -0.336 N 
HETATM   24  HN  UNL     1      13.680  -1.727 -16.152  1.00  0.00     0.168 HD
BRANCH  16  25
HETATM   25  C   UNL     1      17.053  -5.798 -16.250  1.00  0.00     0.182 C 
HETATM   26  C   UNL     1      17.678  -6.158 -14.886  1.00  0.00     0.043 C 
BRANCH  25  27
HETATM   27  C   UNL     1      16.266  -6.969 -16.889  1.00  0.00     0.247 C 
HETATM   28  O   UNL     1      15.724  -7.797 -16.146  1.00  0.00    -0.271 OA
HETATM   29  N   UNL     1      16.143  -7.034 -18.268  1.00  0.00    -0.315 N 
HETATM   30  C   UNL     1      16.374  -5.992 -19.294  1.00  0.00     0.137 C 
HETATM   31  C   UNL     1      15.710  -8.198 -18.944  1.00  0.00     0.043 A 
HETATM   32  C   UNL     1      16.317  -6.670 -20.672  1.00  0.00     0.061 C 
HETATM   33  C   UNL     1      15.847  -8.042 -20.322  1.00  0.00    -0.030 A 
HETATM   34  C   UNL     1      15.629  -9.104 -21.186  1.00  0.00     0.009 A 
HETATM   35  C   UNL     1      15.226 -10.329 -20.649  1.00  0.00     0.001 A 
HETATM   36  C   UNL     1      15.032 -10.471 -19.271  1.00  0.00     0.002 A 
HETATM   37  C   UNL     1      15.281  -9.402 -18.410  1.00  0.00     0.030 A 
ENDBRANCH  25  27
ENDBRANCH  16  25
ENDBRANCH   9  13
ENDBRANCH   8   9
ENDBRANCH   7   8
TORSDOF 5
ENDMDL
MODEL 6
REMARK VINA RESULT:      -8.1      1.300      1.878
REMARK  5 active torsions:
REMARK  status: ('A' for Active; 'I' for Inactive)
REMARK    1  A    between atoms: C_7  and  C_8 
REMARK    2  A    between atoms: C_8  and  N_9 
REMARK       I    between atoms: N_9  and  C_10 
REMARK    3  A    between atoms: N_9  and  C_13 
REMARK    4  A    between atoms: N_16  and  C_17 
REMARK    5  A    between atoms: C_17  and  C_19 
REMARK       I    between atoms: C_19  and  N_21 
ROOT
HETATM    1  C   UNL     1      16.005  -4.176 -20.328  1.00  0.00     0.049 C 
HETATM    2  C   UNL     1      15.595  -5.620 -20.371  1.00  0.00    -0.054 A 
HETATM    3  C   UNL     1      15.541  -6.248 -21.634  1.00  0.00     0.007 A 
HETATM    4  C   UNL     1      15.097  -7.563 -21.781  1.00  0.00     0.001 A 
HETATM    5  C   UNL     1      14.680  -8.271 -20.667  1.00  0.00     0.001 A 
HETATM    6  C   UNL     1      14.781  -7.685 -19.408  1.00  0.00     0.009 A 
HETATM    7  C   UNL     1      15.265  -6.366 -19.224  1.00  0.00    -0.034 A 
ENDROOT
BRANCH   7   8
HETATM    8  C   UNL     1      15.531  -5.966 -17.774  1.00  0.00     0.172 C 
BRANCH   8   9
HETATM    9  N   UNL     1      14.447  -5.446 -16.932  1.00  0.00    -0.295 N 
HETATM   10  C   UNL     1      14.097  -6.274 -15.851  1.00  0.00     0.221 C 
HETATM   11  O   UNL     1      14.590  -7.393 -15.675  1.00  0.00    -0.273 OA
HETATM   12  C   UNL     1      13.059  -5.797 -14.862  1.00  0.00     0.117 C 
BRANCH   9  13
HETATM   13  C   UNL     1      13.614  -4.420 -17.422  1.00  0.00     0.180 C 
HETATM   14  C   UNL     1      12.374  -4.801 -18.247  1.00  0.00     0.293 C 
HETATM   15  O   UNL     1      11.659  -5.746 -17.946  1.00  0.00    -0.264 OA
HETATM   16  N   UNL     1      12.159  -3.950 -19.338  1.00  0.00    -0.296 N 
HETATM   17  C   UNL     1      12.244  -2.561 -18.986  1.00  0.00     0.065 A 
HETATM   18  C   UNL     1      11.462  -1.565 -19.579  1.00  0.00     0.032 A 
HETATM   19  C   UNL     1      13.052  -2.225 -17.871  1.00  0.00     0.061 A 
HETATM   20  C   UNL     1      11.430  -0.276 -19.028  1.00  0.00     0.002 A 
HETATM   21  C   UNL     1      12.220   0.044 -17.925  1.00  0.00     0.002 A 
HETATM   22  C   UNL     1      13.044  -0.927 -17.365  1.00  0.00     0.032 A 
HETATM   23  N   UNL     1      13.891  -3.169 -17.253  1.00  0.00    -0.336 N 
HETATM   24  HN  UNL     1      14.690  -2.876 -16.690  1.00  0.00     0.168 HD
BRANCH  16  25
HETATM   25  C   UNL     1      11.366  -4.466 -20.483  1.00  0.00     0.182 C 
HETATM   26  C   UNL     1      10.093  -3.606 -20.624  1.00  0.00     0.043 C 
BRANCH  25  27
HETATM   27  C   UNL     1      12.223  -4.505 -21.773  1.00  0.00     0.247 C 
HETATM   28  O   UNL     1      12.994  -3.565 -22.004  1.00  0.00    -0.271 OA
HETATM   29  N   UNL     1      12.145  -5.608 -22.609  1.00  0.00    -0.315 N 
HETATM   30  C   UNL     1      11.601  -6.961 -22.351  1.00  0.00     0.137 C 
HETATM   31  C   UNL     1      12.648  -5.605 -23.929  1.00  0.00     0.043 A 
HETATM   32  C   UNL     1      11.556  -7.711 -23.690  1.00  0.00     0.061 C 
HETATM   33  C   UNL     1      12.283  -6.774 -24.594  1.00  0.00    -0.030 A 
HETATM   34  C   UNL     1      12.533  -6.933 -25.949  1.00  0.00     0.009 A 
HETATM   35  C   UNL     1      13.200  -5.911 -26.628  1.00  0.00     0.001 A 
HETATM   36  C   UNL     1      13.619  -4.762 -25.950  1.00  0.00     0.002 A 
HETATM   37  C   UNL     1      13.338  -4.603 -24.593  1.00  0.00     0.030 A 
ENDBRANCH  25  27
ENDBRANCH  16  25
ENDBRANCH   9  13
ENDBRANCH   8   9
ENDBRANCH   7   8
TORSDOF 5
ENDMDL
MODEL 7
REMARK VINA RESULT:      -8.1      2.636      5.441
REMARK  5 active torsions:
REMARK  status: ('A' for Active; 'I' for Inactive)
REMARK    1  A    between atoms: C_7  and  C_8 
REMARK    2  A    between atoms: C_8  and  N_9 
REMARK       I    between atoms: N_9  and  C_10 
REMARK    3  A    between atoms: N_9  and  C_13 
REMARK    4  A    between atoms: N_16  and  C_17 
REMARK    5  A    between atoms: C_17  and  C_19 
REMARK       I    between atoms: C_19  and  N_21 
ROOT
HETATM    1  C   UNL     1      16.526  -3.451 -20.092  1.00  0.00     0.049 C 
HETATM    2  C   UNL     1      15.609  -4.350 -20.870  1.00  0.00    -0.054 A 
HETATM    3  C   UNL     1      14.523  -3.752 -21.545  1.00  0.00     0.007 A 
HETATM    4  C   UNL     1      13.575  -4.514 -22.230  1.00  0.00     0.001 A 
HETATM    5  C   UNL     1      13.684  -5.894 -22.235  1.00  0.00     0.001 A 
HETATM    6  C   UNL     1      14.780  -6.495 -21.622  1.00  0.00     0.009 A 
HETATM    7  C   UNL     1      15.779  -5.745 -20.954  1.00  0.00    -0.034 A 
ENDROOT
BRANCH   7   8
HETATM    8  C   UNL     1      17.022  -6.533 -20.545  1.00  0.00     0.172 C 
BRANCH   8   9
HETATM    9  N   UNL     1      17.117  -7.138 -19.211  1.00  0.00    -0.295 N 
HETATM   10  C   UNL     1      16.886  -8.524 -19.180  1.00  0.00     0.221 C 
HETATM   11  O   UNL     1      16.537  -9.171 -20.173  1.00  0.00    -0.273 OA
HETATM   12  C   UNL     1      17.051  -9.271 -17.876  1.00  0.00     0.117 C 
BRANCH   9  13
HETATM   13  C   UNL     1      17.054  -6.317 -18.067  1.00  0.00     0.180 C 
HETATM   14  C   UNL     1      15.743  -6.255 -17.268  1.00  0.00     0.293 C 
HETATM   15  O   UNL     1      15.071  -7.252 -17.045  1.00  0.00    -0.264 OA
HETATM   16  N   UNL     1      15.432  -4.964 -16.824  1.00  0.00    -0.296 N 
HETATM   17  C   UNL     1      16.546  -4.305 -16.204  1.00  0.00     0.065 A 
HETATM   18  C   UNL     1      16.418  -3.417 -15.132  1.00  0.00     0.032 A 
HETATM   19  C   UNL     1      17.843  -4.709 -16.609  1.00  0.00     0.061 A 
HETATM   20  C   UNL     1      17.557  -2.994 -14.430  1.00  0.00     0.002 A 
HETATM   21  C   UNL     1      18.828  -3.403 -14.828  1.00  0.00     0.002 A 
HETATM   22  C   UNL     1      18.967  -4.242 -15.930  1.00  0.00     0.032 A 
HETATM   23  N   UNL     1      18.043  -5.569 -17.702  1.00  0.00    -0.336 N 
HETATM   24  HN  UNL     1      18.938  -5.600 -18.191  1.00  0.00     0.168 HD
BRANCH  16  25
HETATM   25  C   UNL     1      14.012  -4.651 -16.520  1.00  0.00     0.182 C 
HETATM   26  C   UNL     1      13.962  -3.811 -15.228  1.00  0.00     0.043 C 
BRANCH  25  27
HETATM   27  C   UNL     1      13.331  -3.958 -17.727  1.00  0.00     0.247 C 
HETATM   28  O   UNL     1      13.607  -2.776 -17.967  1.00  0.00    -0.271 OA
HETATM   29  N   UNL     1      12.472  -4.687 -18.535  1.00  0.00    -0.315 N 
HETATM   30  C   UNL     1      12.296  -6.151 -18.660  1.00  0.00     0.137 C 
HETATM   31  C   UNL     1      11.591  -4.080 -19.458  1.00  0.00     0.043 A 
HETATM   32  C   UNL     1      11.053  -6.402 -19.527  1.00  0.00     0.061 C 
HETATM   33  C   UNL     1      10.729  -5.027 -20.006  1.00  0.00    -0.030 A 
HETATM   34  C   UNL     1       9.675  -4.647 -20.824  1.00  0.00     0.009 A 
HETATM   35  C   UNL     1       9.521  -3.291 -21.125  1.00  0.00     0.001 A 
HETATM   36  C   UNL     1      10.420  -2.345 -20.623  1.00  0.00     0.002 A 
HETATM   37  C   UNL     1      11.459  -2.738 -19.780  1.00  0.00     0.030 A 
ENDBRANCH  25  27
ENDBRANCH  16  25
ENDBRANCH   9  13
ENDBRANCH   8   9
ENDBRANCH   7   8
TORSDOF 5
ENDMDL
MODEL 8
REMARK VINA RESULT:      -8.0      2.957      6.296
REMARK  5 active torsions:
REMARK  status: ('A' for Active; 'I' for Inactive)
REMARK    1  A    between atoms: C_7  and  C_8 
REMARK    2  A    between atoms: C_8  and  N_9 
REMARK       I    between atoms: N_9  and  C_10 
REMARK    3  A    between atoms: N_9  and  C_13 
REMARK    4  A    between atoms: N_16  and  C_17 
REMARK    5  A    between atoms: C_17  and  C_19 
REMARK       I    between atoms: C_19  and  N_21 
ROOT
HETATM    1  C   UNL     1      19.078  -3.512 -16.088  1.00  0.00     0.049 C 
HETATM    2  C   UNL     1      17.964  -2.552 -15.787  1.00  0.00    -0.054 A 
HETATM    3  C   UNL     1      17.938  -1.334 -16.500  1.00  0.00     0.007 A 
HETATM    4  C   UNL     1      16.987  -0.348 -16.234  1.00  0.00     0.001 A 
HETATM    5  C   UNL     1      16.053  -0.553 -15.233  1.00  0.00     0.001 A 
HETATM    6  C   UNL     1      16.030  -1.771 -14.560  1.00  0.00     0.009 A 
HETATM    7  C   UNL     1      16.958  -2.806 -14.836  1.00  0.00    -0.034 A 
ENDROOT
BRANCH   7   8
HETATM    8  C   UNL     1      16.649  -4.151 -14.180  1.00  0.00     0.172 C 
BRANCH   8   9
HETATM    9  N   UNL     1      15.726  -5.098 -14.817  1.00  0.00    -0.295 N 
HETATM   10  C   UNL     1      14.419  -5.079 -14.301  1.00  0.00     0.221 C 
HETATM   11  O   UNL     1      14.090  -4.393 -13.327  1.00  0.00    -0.273 OA
HETATM   12  C   UNL     1      13.359  -5.945 -14.943  1.00  0.00     0.117 C 
BRANCH   9  13
HETATM   13  C   UNL     1      16.241  -6.165 -15.582  1.00  0.00     0.180 C 
HETATM   14  C   UNL     1      16.190  -6.072 -17.115  1.00  0.00     0.293 C 
HETATM   15  O   UNL     1      16.442  -5.035 -17.711  1.00  0.00    -0.264 OA
HETATM   16  N   UNL     1      15.850  -7.285 -17.727  1.00  0.00    -0.296 N 
HETATM   17  C   UNL     1      16.602  -8.396 -17.216  1.00  0.00     0.065 A 
HETATM   18  C   UNL     1      17.002  -9.483 -17.999  1.00  0.00     0.032 A 
HETATM   19  C   UNL     1      17.090  -8.291 -15.889  1.00  0.00     0.061 A 
HETATM   20  C   UNL     1      17.925 -10.411 -17.495  1.00  0.00     0.002 A 
HETATM   21  C   UNL     1      18.407 -10.295 -16.192  1.00  0.00     0.002 A 
HETATM   22  C   UNL     1      17.970  -9.248 -15.388  1.00  0.00     0.032 A 
HETATM   23  N   UNL     1      16.697  -7.245 -15.037  1.00  0.00    -0.336 N 
HETATM   24  HN  UNL     1      16.771  -7.334 -14.023  1.00  0.00     0.168 HD
BRANCH  16  25
HETATM   25  C   UNL     1      15.263  -7.241 -19.090  1.00  0.00     0.182 C 
HETATM   26  C   UNL     1      14.931  -8.682 -19.527  1.00  0.00     0.043 C 
BRANCH  25  27
HETATM   27  C   UNL     1      14.038  -6.293 -19.131  1.00  0.00     0.247 C 
HETATM   28  O   UNL     1      13.148  -6.435 -18.284  1.00  0.00    -0.271 OA
HETATM   29  N   UNL     1      13.991  -5.283 -20.079  1.00  0.00    -0.315 N 
HETATM   30  C   UNL     1      15.071  -4.709 -20.913  1.00  0.00     0.137 C 
HETATM   31  C   UNL     1      12.807  -4.573 -20.383  1.00  0.00     0.043 A 
HETATM   32  C   UNL     1      14.420  -3.781 -21.950  1.00  0.00     0.061 C 
HETATM   33  C   UNL     1      13.004  -3.743 -21.484  1.00  0.00    -0.030 A 
HETATM   34  C   UNL     1      11.945  -3.060 -22.064  1.00  0.00     0.009 A 
HETATM   35  C   UNL     1      10.677  -3.189 -21.492  1.00  0.00     0.001 A 
HETATM   36  C   UNL     1      10.488  -3.976 -20.351  1.00  0.00     0.002 A 
HETATM   37  C   UNL     1      11.556  -4.678 -19.795  1.00  0.00     0.030 A 
ENDBRANCH  25  27
ENDBRANCH  16  25
ENDBRANCH   9  13
ENDBRANCH   8   9
ENDBRANCH   7   8
TORSDOF 5
ENDMDL
MODEL 9
REMARK VINA RESULT:      -7.9      6.407      9.248
REMARK  5 active torsions:
REMARK  status: ('A' for Active; 'I' for Inactive)
REMARK    1  A    between atoms: C_7  and  C_8 
REMARK    2  A    between atoms: C_8  and  N_9 
REMARK       I    between atoms: N_9  and  C_10 
REMARK    3  A    between atoms: N_9  and  C_13 
REMARK    4  A    between atoms: N_16  and  C_17 
REMARK    5  A    between atoms: C_17  and  C_19 
REMARK       I    between atoms: C_19  and  N_21 
ROOT
HETATM    1  C   UNL     1      21.518   2.303 -20.535  1.00  0.00     0.049 C 
HETATM    2  C   UNL     1      20.657   1.113 -20.850  1.00  0.00    -0.054 A 
HETATM    3  C   UNL     1      21.186   0.133 -21.717  1.00  0.00     0.007 A 
HETATM    4  C   UNL     1      20.432  -0.968 -22.127  1.00  0.00     0.001 A 
HETATM    5  C   UNL     1      19.125  -1.099 -21.693  1.00  0.00     0.001 A 
HETATM    6  C   UNL     1      18.608  -0.172 -20.792  1.00  0.00     0.009 A 
HETATM    7  C   UNL     1      19.362   0.934 -20.327  1.00  0.00    -0.034 A 
ENDROOT
BRANCH   7   8
HETATM    8  C   UNL     1      18.733   1.714 -19.175  1.00  0.00     0.172 C 
BRANCH   8   9
HETATM    9  N   UNL     1      17.305   2.054 -19.194  1.00  0.00    -0.295 N 
HETATM   10  C   UNL     1      16.997   3.245 -19.873  1.00  0.00     0.221 C 
HETATM   11  O   UNL     1      17.860   3.998 -20.336  1.00  0.00    -0.273 OA
HETATM   12  C   UNL     1      15.549   3.647 -20.039  1.00  0.00     0.117 C 
BRANCH   9  13
HETATM   13  C   UNL     1      16.429   1.436 -18.279  1.00  0.00     0.180 C 
HETATM   14  C   UNL     1      16.833   1.360 -16.798  1.00  0.00     0.293 C 
HETATM   15  O   UNL     1      17.368   2.297 -16.222  1.00  0.00    -0.264 OA
HETATM   16  N   UNL     1      16.508   0.135 -16.203  1.00  0.00    -0.296 N 
HETATM   17  C   UNL     1      15.161  -0.279 -16.481  1.00  0.00     0.065 A 
HETATM   18  C   UNL     1      14.366  -0.982 -15.571  1.00  0.00     0.032 A 
HETATM   19  C   UNL     1      14.574   0.198 -17.680  1.00  0.00     0.061 A 
HETATM   20  C   UNL     1      12.995  -1.147 -15.817  1.00  0.00     0.002 A 
HETATM   21  C   UNL     1      12.423  -0.668 -16.994  1.00  0.00     0.002 A 
HETATM   22  C   UNL     1      13.220  -0.017 -17.931  1.00  0.00     0.032 A 
HETATM   23  N   UNL     1      15.325   0.878 -18.654  1.00  0.00    -0.336 N 
HETATM   24  HN  UNL     1      15.010   0.928 -19.623  1.00  0.00     0.168 HD
BRANCH  16  25
HETATM   25  C   UNL     1      17.268  -0.282 -14.998  1.00  0.00     0.182 C 
HETATM   26  C   UNL     1      16.721  -1.642 -14.520  1.00  0.00     0.043 C 
BRANCH  25  27
HETATM   27  C   UNL     1      18.790  -0.303 -15.288  1.00  0.00     0.247 C 
HETATM   28  O   UNL     1      19.546   0.339 -14.548  1.00  0.00    -0.271 OA
HETATM   29  N   UNL     1      19.274  -1.078 -16.331  1.00  0.00    -0.315 N 
HETATM   30  C   UNL     1      18.627  -2.180 -17.077  1.00  0.00     0.137 C 
HETATM   31  C   UNL     1      20.580  -0.932 -16.851  1.00  0.00     0.043 A 
HETATM   32  C   UNL     1      19.523  -2.525 -18.276  1.00  0.00     0.061 C 
HETATM   33  C   UNL     1      20.739  -1.708 -17.997  1.00  0.00    -0.030 A 
HETATM   34  C   UNL     1      21.887  -1.613 -18.770  1.00  0.00     0.009 A 
HETATM   35  C   UNL     1      22.904  -0.753 -18.351  1.00  0.00     0.001 A 
HETATM   36  C   UNL     1      22.770  -0.017 -17.169  1.00  0.00     0.002 A 
HETATM   37  C   UNL     1      21.600  -0.100 -16.416  1.00  0.00     0.030 A 
ENDBRANCH  25  27
ENDBRANCH  16  25
ENDBRANCH   9  13
ENDBRANCH   8   9
ENDBRANCH   7   8
TORSDOF 5
ENDMDL
