MODEL 1
REMARK VINA RESULT:      -7.8      0.000      0.000
REMARK  4 active torsions:
REMARK  status: ('A' for Active; 'I' for Inactive)
REMARK    1  A    between atoms: C_3  and  C_18 
REMARK    2  A    between atoms: C_8  and  C_9 
REMARK    3  A    between atoms: C_9  and  C_11 
REMARK    4  A    between atoms: C_18  and  C_20 
ROOT
HETATM    1  C   UNL     1      26.549 -11.283 -17.973  1.00  0.00     0.020 C 
HETATM    2  C   UNL     1      25.529 -11.530 -19.095  1.00  0.00     0.059 C 
HETATM    3  C   UNL     1      26.109 -11.059 -20.412  1.00  0.00     0.023 C 
HETATM    4  C   UNL     1      26.557 -12.024 -21.265  1.00  0.00     0.016 C 
HETATM    5  C   UNL     1      27.208 -11.837 -22.619  1.00  0.00     0.069 C 
HETATM    6  N   UNL     1      26.409 -13.366 -20.913  1.00  0.00    -0.362 N 
HETATM    7  C   UNL     1      25.604 -13.847 -19.889  1.00  0.00     0.016 C 
HETATM    8  C   UNL     1      25.055 -12.967 -19.020  1.00  0.00     0.023 C 
HETATM    9  C   UNL     1      25.416 -15.341 -19.819  1.00  0.00     0.069 C 
HETATM   10  HN  UNL     1      26.745 -14.056 -21.588  1.00  0.00     0.165 HD
ENDROOT
BRANCH   3  11
HETATM   11  C   UNL     1      26.198  -9.555 -20.686  1.00  0.00     0.191 C 
HETATM   12  O   UNL     1      27.270  -8.974 -20.498  1.00  0.00    -0.287 OA
BRANCH  11  13
HETATM   13  C   UNL     1      25.058  -8.670 -21.206  1.00  0.00     0.015 A 
HETATM   14  C   UNL     1      23.989  -9.016 -22.048  1.00  0.00     0.015 A 
HETATM   15  C   UNL     1      23.051  -8.085 -22.517  1.00  0.00     0.001 A 
HETATM   16  C   UNL     1      23.108  -6.771 -22.092  1.00  0.00     0.000 A 
HETATM   17  C   UNL     1      24.104  -6.397 -21.198  1.00  0.00     0.001 A 
HETATM   18  C   UNL     1      25.069  -7.328 -20.774  1.00  0.00     0.015 A 
ENDBRANCH  11  13
ENDBRANCH   3  11
BRANCH   8  19
HETATM   19  C   UNL     1      24.114 -13.391 -17.911  1.00  0.00     0.191 C 
HETATM   20  O   UNL     1      22.899 -13.412 -18.112  1.00  0.00    -0.287 OA
BRANCH  19  21
HETATM   21  C   UNL     1      24.600 -13.868 -16.571  1.00  0.00     0.015 A 
HETATM   22  C   UNL     1      24.958 -13.032 -15.504  1.00  0.00     0.015 A 
HETATM   23  C   UNL     1      25.439 -13.567 -14.300  1.00  0.00     0.001 A 
HETATM   24  C   UNL     1      25.476 -14.945 -14.108  1.00  0.00     0.000 A 
HETATM   25  C   UNL     1      25.047 -15.790 -15.127  1.00  0.00     0.001 A 
HETATM   26  C   UNL     1      24.629 -15.256 -16.352  1.00  0.00     0.015 A 
ENDBRANCH  19  21
ENDBRANCH   8  19
TORSDOF 4
ENDMDL
MODEL 2
REMARK VINA RESULT:      -7.1     10.625     13.532
REMARK  4 active torsions:
REMARK  status: ('A' for Active; 'I' for Inactive)
REMARK    1  A    between atoms: C_3  and  C_18 
REMARK    2  A    between atoms: C_8  and  C_9 
REMARK    3  A    between atoms: C_9  and  C_11 
REMARK    4  A    between atoms: C_18  and  C_20 
ROOT
HETATM    1  C   UNL     1      21.340   1.745 -20.588  1.00  0.00     0.020 C 
HETATM    2  C   UNL     1      22.262   1.186 -21.683  1.00  0.00     0.059 C 
HETATM    3  C   UNL     1      23.566   1.956 -21.681  1.00  0.00     0.023 C 
HETATM    4  C   UNL     1      24.645   1.334 -21.128  1.00  0.00     0.016 C 
HETATM    5  C   UNL     1      26.049   1.878 -20.964  1.00  0.00     0.069 C 
HETATM    6  N   UNL     1      24.510   0.027 -20.656  1.00  0.00    -0.362 N 
HETATM    7  C   UNL     1      23.446  -0.822 -20.927  1.00  0.00     0.016 C 
HETATM    8  C   UNL     1      22.346  -0.319 -21.534  1.00  0.00     0.023 C 
HETATM    9  C   UNL     1      23.602  -2.260 -20.504  1.00  0.00     0.069 C 
HETATM   10  HN  UNL     1      25.348  -0.406 -20.263  1.00  0.00     0.165 HD
ENDROOT
BRANCH   3  11
HETATM   11  C   UNL     1      23.586   3.379 -22.249  1.00  0.00     0.191 C 
HETATM   12  O   UNL     1      23.518   4.335 -21.472  1.00  0.00    -0.287 OA
BRANCH  11  13
HETATM   13  C   UNL     1      23.704   3.749 -23.732  1.00  0.00     0.015 A 
HETATM   14  C   UNL     1      23.349   4.948 -24.372  1.00  0.00     0.015 A 
HETATM   15  C   UNL     1      23.435   5.130 -25.760  1.00  0.00     0.001 A 
HETATM   16  C   UNL     1      23.957   4.130 -26.558  1.00  0.00     0.000 A 
HETATM   17  C   UNL     1      24.392   2.953 -25.962  1.00  0.00     0.001 A 
HETATM   18  C   UNL     1      24.254   2.762 -24.575  1.00  0.00     0.015 A 
ENDBRANCH  11  13
ENDBRANCH   3  11
BRANCH   8  19
HETATM   19  C   UNL     1      21.163  -1.181 -21.926  1.00  0.00     0.191 C 
HETATM   20  O   UNL     1      21.139  -1.723 -23.032  1.00  0.00    -0.287 OA
BRANCH  19  21
HETATM   21  C   UNL     1      20.025  -1.473 -20.990  1.00  0.00     0.015 A 
HETATM   22  C   UNL     1      18.830  -0.742 -20.927  1.00  0.00     0.015 A 
HETATM   23  C   UNL     1      17.835  -1.066 -19.991  1.00  0.00     0.001 A 
HETATM   24  C   UNL     1      17.977  -2.183 -19.174  1.00  0.00     0.000 A 
HETATM   25  C   UNL     1      19.120  -2.969 -19.280  1.00  0.00     0.001 A 
HETATM   26  C   UNL     1      20.141  -2.607 -20.167  1.00  0.00     0.015 A 
ENDBRANCH  19  21
ENDBRANCH   8  19
TORSDOF 4
ENDMDL
MODEL 3
REMARK VINA RESULT:      -7.0     11.116     13.652
REMARK  4 active torsions:
REMARK  status: ('A' for Active; 'I' for Inactive)
REMARK    1  A    between atoms: C_3  and  C_18 
REMARK    2  A    between atoms: C_8  and  C_9 
REMARK    3  A    between atoms: C_9  and  C_11 
REMARK    4  A    between atoms: C_18  and  C_20 
ROOT
HETATM    1  C   UNL     1      16.275  -4.762 -18.493  1.00  0.00     0.020 C 
HETATM    2  C   UNL     1      16.236  -3.887 -19.755  1.00  0.00     0.059 C 
HETATM    3  C   UNL     1      14.847  -3.936 -20.356  1.00  0.00     0.023 C 
HETATM    4  C   UNL     1      14.054  -2.844 -20.159  1.00  0.00     0.016 C 
HETATM    5  C   UNL     1      12.625  -2.640 -20.615  1.00  0.00     0.069 C 
HETATM    6  N   UNL     1      14.572  -1.741 -19.480  1.00  0.00    -0.362 N 
HETATM    7  C   UNL     1      15.915  -1.521 -19.204  1.00  0.00     0.016 C 
HETATM    8  C   UNL     1      16.800  -2.521 -19.424  1.00  0.00     0.023 C 
HETATM    9  C   UNL     1      16.281  -0.165 -18.658  1.00  0.00     0.069 C 
HETATM   10  HN  UNL     1      13.949  -0.939 -19.368  1.00  0.00     0.165 HD
ENDROOT
BRANCH   3  11
HETATM   11  C   UNL     1      14.406  -5.202 -21.097  1.00  0.00     0.191 C 
HETATM   12  O   UNL     1      14.048  -6.185 -20.443  1.00  0.00    -0.287 OA
BRANCH  11  13
HETATM   13  C   UNL     1      14.342  -5.372 -22.620  1.00  0.00     0.015 A 
HETATM   14  C   UNL     1      13.900  -4.459 -23.590  1.00  0.00     0.015 A 
HETATM   15  C   UNL     1      13.818  -4.771 -24.955  1.00  0.00     0.001 A 
HETATM   16  C   UNL     1      14.252  -6.001 -25.411  1.00  0.00     0.000 A 
HETATM   17  C   UNL     1      14.769  -6.912 -24.498  1.00  0.00     0.001 A 
HETATM   18  C   UNL     1      14.799  -6.606 -23.125  1.00  0.00     0.015 A 
ENDBRANCH  11  13
ENDBRANCH   3  11
BRANCH   8  19
HETATM   19  C   UNL     1      18.291  -2.354 -19.212  1.00  0.00     0.191 C 
HETATM   20  O   UNL     1      18.777  -2.545 -18.097  1.00  0.00    -0.287 OA
BRANCH  19  21
HETATM   21  C   UNL     1      19.240  -2.030 -20.331  1.00  0.00     0.015 A 
HETATM   22  C   UNL     1      18.961  -1.153 -21.389  1.00  0.00     0.015 A 
HETATM   23  C   UNL     1      19.896  -0.940 -22.414  1.00  0.00     0.001 A 
HETATM   24  C   UNL     1      21.158  -1.522 -22.345  1.00  0.00     0.000 A 
HETATM   25  C   UNL     1      21.482  -2.331 -21.260  1.00  0.00     0.001 A 
HETATM   26  C   UNL     1      20.525  -2.595 -20.272  1.00  0.00     0.015 A 
ENDBRANCH  19  21
ENDBRANCH   8  19
TORSDOF 4
ENDMDL
MODEL 4
REMARK VINA RESULT:      -7.0     10.808     13.873
REMARK  4 active torsions:
REMARK  status: ('A' for Active; 'I' for Inactive)
REMARK    1  A    between atoms: C_3  and  C_18 
REMARK    2  A    between atoms: C_8  and  C_9 
REMARK    3  A    between atoms: C_9  and  C_11 
REMARK    4  A    between atoms: C_18  and  C_20 
ROOT
HETATM    1  C   UNL     1      18.324  -3.229 -19.536  1.00  0.00     0.020 C 
HETATM    2  C   UNL     1      17.443  -2.194 -20.252  1.00  0.00     0.059 C 
HETATM    3  C   UNL     1      16.112  -2.088 -19.536  1.00  0.00     0.023 C 
HETATM    4  C   UNL     1      15.925  -0.991 -18.748  1.00  0.00     0.016 C 
HETATM    5  C   UNL     1      14.717  -0.652 -17.901  1.00  0.00     0.069 C 
HETATM    6  N   UNL     1      16.922  -0.017 -18.690  1.00  0.00    -0.362 N 
HETATM    7  C   UNL     1      17.996   0.093 -19.563  1.00  0.00     0.016 C 
HETATM    8  C   UNL     1      18.235  -0.916 -20.434  1.00  0.00     0.023 C 
HETATM    9  C   UNL     1      18.830   1.342 -19.458  1.00  0.00     0.069 C 
HETATM   10  HN  UNL     1      16.733   0.795 -18.099  1.00  0.00     0.165 HD
ENDROOT
BRANCH   3  11
HETATM   11  C   UNL     1      15.093  -3.219 -19.699  1.00  0.00     0.191 C 
HETATM   12  O   UNL     1      15.026  -4.096 -18.834  1.00  0.00    -0.287 OA
BRANCH  11  13
HETATM   13  C   UNL     1      14.099  -3.369 -20.858  1.00  0.00     0.015 A 
HETATM   14  C   UNL     1      12.749  -2.986 -20.916  1.00  0.00     0.015 A 
HETATM   15  C   UNL     1      11.923  -3.255 -22.017  1.00  0.00     0.001 A 
HETATM   16  C   UNL     1      12.447  -3.858 -23.144  1.00  0.00     0.000 A 
HETATM   17  C   UNL     1      13.797  -4.188 -23.164  1.00  0.00     0.001 A 
HETATM   18  C   UNL     1      14.603  -3.959 -22.034  1.00  0.00     0.015 A 
ENDBRANCH  11  13
ENDBRANCH   3  11
BRANCH   8  19
HETATM   19  C   UNL     1      19.344  -0.858 -21.466  1.00  0.00     0.191 C 
HETATM   20  O   UNL     1      19.144  -0.309 -22.550  1.00  0.00    -0.287 OA
BRANCH  19  21
HETATM   21  C   UNL     1      20.726  -1.385 -21.203  1.00  0.00     0.015 A 
HETATM   22  C   UNL     1      21.333  -1.451 -19.941  1.00  0.00     0.015 A 
HETATM   23  C   UNL     1      22.646  -1.923 -19.796  1.00  0.00     0.001 A 
HETATM   24  C   UNL     1      23.336  -2.427 -20.894  1.00  0.00     0.000 A 
HETATM   25  C   UNL     1      22.720  -2.445 -22.141  1.00  0.00     0.001 A 
HETATM   26  C   UNL     1      21.434  -1.914 -22.296  1.00  0.00     0.015 A 
ENDBRANCH  19  21
ENDBRANCH   8  19
TORSDOF 4
ENDMDL
MODEL 5
REMARK VINA RESULT:      -7.0     11.302     14.979
REMARK  4 active torsions:
REMARK  status: ('A' for Active; 'I' for Inactive)
REMARK    1  A    between atoms: C_3  and  C_18 
REMARK    2  A    between atoms: C_8  and  C_9 
REMARK    3  A    between atoms: C_9  and  C_11 
REMARK    4  A    between atoms: C_18  and  C_20 
ROOT
HETATM    1  C   UNL     1      16.664  -2.480 -15.906  1.00  0.00     0.020 C 
HETATM    2  C   UNL     1      15.368  -3.203 -16.301  1.00  0.00     0.059 C 
HETATM    3  C   UNL     1      14.874  -4.023 -15.127  1.00  0.00     0.023 C 
HETATM    4  C   UNL     1      13.814  -3.521 -14.432  1.00  0.00     0.016 C 
HETATM    5  C   UNL     1      13.144  -4.109 -13.208  1.00  0.00     0.069 C 
HETATM    6  N   UNL     1      13.216  -2.336 -14.862  1.00  0.00    -0.362 N 
HETATM    7  C   UNL     1      13.417  -1.733 -16.097  1.00  0.00     0.016 C 
HETATM    8  C   UNL     1      14.406  -2.196 -16.897  1.00  0.00     0.023 C 
HETATM    9  C   UNL     1      12.509  -0.582 -16.445  1.00  0.00     0.069 C 
HETATM   10  HN  UNL     1      12.416  -2.004 -14.321  1.00  0.00     0.165 HD
ENDROOT
BRANCH   3  11
HETATM   11  C   UNL     1      15.607  -5.319 -14.769  1.00  0.00     0.191 C 
HETATM   12  O   UNL     1      16.183  -5.400 -13.681  1.00  0.00    -0.287 OA
BRANCH  11  13
HETATM   13  C   UNL     1      15.685  -6.575 -15.646  1.00  0.00     0.015 A 
HETATM   14  C   UNL     1      16.803  -7.368 -15.950  1.00  0.00     0.015 A 
HETATM   15  C   UNL     1      16.753  -8.453 -16.838  1.00  0.00     0.001 A 
HETATM   16  C   UNL     1      15.549  -8.832 -17.401  1.00  0.00     0.000 A 
HETATM   17  C   UNL     1      14.401  -8.123 -17.071  1.00  0.00     0.001 A 
HETATM   18  C   UNL     1      14.472  -7.006 -16.220  1.00  0.00     0.015 A 
ENDBRANCH  11  13
ENDBRANCH   3  11
BRANCH   8  19
HETATM   19  C   UNL     1      14.659  -1.644 -18.285  1.00  0.00     0.191 C 
HETATM   20  O   UNL     1      15.315  -0.611 -18.424  1.00  0.00    -0.287 OA
BRANCH  19  21
HETATM   21  C   UNL     1      14.204  -2.345 -19.534  1.00  0.00     0.015 A 
HETATM   22  C   UNL     1      12.874  -2.419 -19.973  1.00  0.00     0.015 A 
HETATM   23  C   UNL     1      12.537  -3.131 -21.134  1.00  0.00     0.001 A 
HETATM   24  C   UNL     1      13.533  -3.695 -21.927  1.00  0.00     0.000 A 
HETATM   25  C   UNL     1      14.865  -3.561 -21.550  1.00  0.00     0.001 A 
HETATM   26  C   UNL     1      15.196  -2.908 -20.357  1.00  0.00     0.015 A 
ENDBRANCH  19  21
ENDBRANCH   8  19
TORSDOF 4
ENDMDL
MODEL 6
REMARK VINA RESULT:      -6.9     12.723     14.526
REMARK  4 active torsions:
REMARK  status: ('A' for Active; 'I' for Inactive)
REMARK    1  A    between atoms: C_3  and  C_18 
REMARK    2  A    between atoms: C_8  and  C_9 
REMARK    3  A    between atoms: C_9  and  C_11 
REMARK    4  A    between atoms: C_18  and  C_20 
ROOT
HETATM    1  C   UNL     1      15.060  -3.050 -17.955  1.00  0.00     0.020 C 
HETATM    2  C   UNL     1      13.679  -3.118 -17.286  1.00  0.00     0.059 C 
HETATM    3  C   UNL     1      12.694  -3.770 -18.234  1.00  0.00     0.023 C 
HETATM    4  C   UNL     1      12.352  -5.063 -17.969  1.00  0.00     0.016 C 
HETATM    5  C   UNL     1      11.425  -5.959 -18.762  1.00  0.00     0.069 C 
HETATM    6  N   UNL     1      12.870  -5.686 -16.833  1.00  0.00    -0.362 N 
HETATM    7  C   UNL     1      13.501  -5.041 -15.777  1.00  0.00     0.016 C 
HETATM    8  C   UNL     1      13.830  -3.735 -15.911  1.00  0.00     0.023 C 
HETATM    9  C   UNL     1      13.787  -5.869 -14.551  1.00  0.00     0.069 C 
HETATM   10  HN  UNL     1      12.576  -6.649 -16.665  1.00  0.00     0.165 HD
ENDROOT
BRANCH   3  11
HETATM   11  C   UNL     1      12.184  -2.970 -19.436  1.00  0.00     0.191 C 
HETATM   12  O   UNL     1      11.524  -1.946 -19.238  1.00  0.00    -0.287 OA
BRANCH  11  13
HETATM   13  C   UNL     1      12.434  -3.311 -20.910  1.00  0.00     0.015 A 
HETATM   14  C   UNL     1      11.517  -3.354 -21.972  1.00  0.00     0.015 A 
HETATM   15  C   UNL     1      11.863  -3.763 -23.268  1.00  0.00     0.001 A 
HETATM   16  C   UNL     1      13.176  -4.077 -23.567  1.00  0.00     0.000 A 
HETATM   17  C   UNL     1      14.135  -3.978 -22.566  1.00  0.00     0.001 A 
HETATM   18  C   UNL     1      13.766  -3.615 -21.258  1.00  0.00     0.015 A 
ENDBRANCH  11  13
ENDBRANCH   3  11
BRANCH   8  19
HETATM   19  C   UNL     1      14.463  -2.933 -14.791  1.00  0.00     0.191 C 
HETATM   20  O   UNL     1      13.754  -2.444 -13.911  1.00  0.00    -0.287 OA
BRANCH  19  21
HETATM   21  C   UNL     1      15.949  -2.759 -14.657  1.00  0.00     0.015 A 
HETATM   22  C   UNL     1      16.877  -3.808 -14.598  1.00  0.00     0.015 A 
HETATM   23  C   UNL     1      18.247  -3.551 -14.432  1.00  0.00     0.001 A 
HETATM   24  C   UNL     1      18.719  -2.241 -14.421  1.00  0.00     0.000 A 
HETATM   25  C   UNL     1      17.821  -1.188 -14.560  1.00  0.00     0.001 A 
HETATM   26  C   UNL     1      16.448  -1.444 -14.660  1.00  0.00     0.015 A 
ENDBRANCH  19  21
ENDBRANCH   8  19
TORSDOF 4
ENDMDL
MODEL 7
REMARK VINA RESULT:      -6.9     10.031     13.423
REMARK  4 active torsions:
REMARK  status: ('A' for Active; 'I' for Inactive)
REMARK    1  A    between atoms: C_3  and  C_18 
REMARK    2  A    between atoms: C_8  and  C_9 
REMARK    3  A    between atoms: C_9  and  C_11 
REMARK    4  A    between atoms: C_18  and  C_20 
ROOT
HETATM    1  C   UNL     1      13.933  -7.107 -18.837  1.00  0.00     0.020 C 
HETATM    2  C   UNL     1      15.034  -6.336 -18.094  1.00  0.00     0.059 C 
HETATM    3  C   UNL     1      15.471  -7.130 -16.881  1.00  0.00     0.023 C 
HETATM    4  C   UNL     1      16.662  -7.787 -16.974  1.00  0.00     0.016 C 
HETATM    5  C   UNL     1      17.318  -8.673 -15.936  1.00  0.00     0.069 C 
HETATM    6  N   UNL     1      17.428  -7.649 -18.132  1.00  0.00    -0.362 N 
HETATM    7  C   UNL     1      17.233  -6.690 -19.118  1.00  0.00     0.016 C 
HETATM    8  C   UNL     1      16.109  -5.937 -19.084  1.00  0.00     0.023 C 
HETATM    9  C   UNL     1      18.302  -6.576 -20.173  1.00  0.00     0.069 C 
HETATM   10  HN  UNL     1      18.320  -8.146 -18.154  1.00  0.00     0.165 HD
ENDROOT
BRANCH   3  11
HETATM   11  C   UNL     1      14.546  -7.186 -15.661  1.00  0.00     0.191 C 
HETATM   12  O   UNL     1      13.953  -8.238 -15.407  1.00  0.00    -0.287 OA
BRANCH  11  13
HETATM   13  C   UNL     1      14.288  -6.036 -14.679  1.00  0.00     0.015 A 
HETATM   14  C   UNL     1      15.200  -5.367 -13.848  1.00  0.00     0.015 A 
HETATM   15  C   UNL     1      14.817  -4.378 -12.930  1.00  0.00     0.001 A 
HETATM   16  C   UNL     1      13.500  -3.967 -12.866  1.00  0.00     0.000 A 
HETATM   17  C   UNL     1      12.572  -4.547 -13.723  1.00  0.00     0.001 A 
HETATM   18  C   UNL     1      12.959  -5.573 -14.603  1.00  0.00     0.015 A 
ENDBRANCH  11  13
ENDBRANCH   3  11
BRANCH   8  19
HETATM   19  C   UNL     1      15.839  -4.826 -20.079  1.00  0.00     0.191 C 
HETATM   20  O   UNL     1      16.231  -3.682 -19.842  1.00  0.00    -0.287 OA
BRANCH  19  21
HETATM   21  C   UNL     1      15.168  -5.064 -21.402  1.00  0.00     0.015 A 
HETATM   22  C   UNL     1      15.156  -6.288 -22.085  1.00  0.00     0.015 A 
HETATM   23  C   UNL     1      14.534  -6.408 -23.338  1.00  0.00     0.001 A 
HETATM   24  C   UNL     1      13.833  -5.335 -23.879  1.00  0.00     0.000 A 
HETATM   25  C   UNL     1      13.765  -4.137 -23.177  1.00  0.00     0.001 A 
HETATM   26  C   UNL     1      14.440  -3.998 -21.958  1.00  0.00     0.015 A 
ENDBRANCH  19  21
ENDBRANCH   8  19
TORSDOF 4
ENDMDL
MODEL 8
REMARK VINA RESULT:      -6.9     10.984     14.045
REMARK  4 active torsions:
REMARK  status: ('A' for Active; 'I' for Inactive)
REMARK    1  A    between atoms: C_3  and  C_18 
REMARK    2  A    between atoms: C_8  and  C_9 
REMARK    3  A    between atoms: C_9  and  C_11 
REMARK    4  A    between atoms: C_18  and  C_20 
ROOT
HETATM    1  C   UNL     1      21.905   2.425 -20.622  1.00  0.00     0.020 C 
HETATM    2  C   UNL     1      22.547   1.352 -21.515  1.00  0.00     0.059 C 
HETATM    3  C   UNL     1      24.053   1.512 -21.487  1.00  0.00     0.023 C 
HETATM    4  C   UNL     1      24.750   0.614 -20.733  1.00  0.00     0.016 C 
HETATM    5  C   UNL     1      26.245   0.560 -20.501  1.00  0.00     0.069 C 
HETATM    6  N   UNL     1      24.063  -0.415 -20.090  1.00  0.00    -0.362 N 
HETATM    7  C   UNL     1      22.751  -0.792 -20.345  1.00  0.00     0.016 C 
HETATM    8  C   UNL     1      21.986  -0.003 -21.136  1.00  0.00     0.023 C 
HETATM    9  C   UNL     1      22.273  -2.066 -19.698  1.00  0.00     0.069 C 
HETATM   10  HN  UNL     1      24.626  -1.073 -19.548  1.00  0.00     0.165 HD
ENDROOT
BRANCH   3  11
HETATM   11  C   UNL     1      24.688   2.675 -22.254  1.00  0.00     0.191 C 
HETATM   12  O   UNL     1      25.573   3.340 -21.709  1.00  0.00    -0.287 OA
BRANCH  11  13
HETATM   13  C   UNL     1      24.339   3.100 -23.686  1.00  0.00     0.015 A 
HETATM   14  C   UNL     1      24.643   2.453 -24.895  1.00  0.00     0.015 A 
HETATM   15  C   UNL     1      24.333   2.994 -26.151  1.00  0.00     0.001 A 
HETATM   16  C   UNL     1      23.632   4.182 -26.240  1.00  0.00     0.000 A 
HETATM   17  C   UNL     1      23.244   4.822 -25.069  1.00  0.00     0.001 A 
HETATM   18  C   UNL     1      23.604   4.295 -23.816  1.00  0.00     0.015 A 
ENDBRANCH  11  13
ENDBRANCH   3  11
BRANCH   8  19
HETATM   19  C   UNL     1      20.566  -0.364 -21.521  1.00  0.00     0.191 C 
HETATM   20  O   UNL     1      20.362  -1.121 -22.471  1.00  0.00    -0.287 OA
BRANCH  19  21
HETATM   21  C   UNL     1      19.368   0.107 -20.746  1.00  0.00     0.015 A 
HETATM   22  C   UNL     1      18.906  -0.472 -19.555  1.00  0.00     0.015 A 
HETATM   23  C   UNL     1      17.753   0.012 -18.918  1.00  0.00     0.001 A 
HETATM   24  C   UNL     1      17.102   1.141 -19.407  1.00  0.00     0.000 A 
HETATM   25  C   UNL     1      17.595   1.778 -20.541  1.00  0.00     0.001 A 
HETATM   26  C   UNL     1      18.707   1.256 -21.213  1.00  0.00     0.015 A 
ENDBRANCH  19  21
ENDBRANCH   8  19
TORSDOF 4
ENDMDL
MODEL 9
REMARK VINA RESULT:      -6.9     13.544     15.823
REMARK  4 active torsions:
REMARK  status: ('A' for Active; 'I' for Inactive)
REMARK    1  A    between atoms: C_3  and  C_18 
REMARK    2  A    between atoms: C_8  and  C_9 
REMARK    3  A    between atoms: C_9  and  C_11 
REMARK    4  A    between atoms: C_18  and  C_20 
ROOT
HETATM    1  C   UNL     1      14.708  -3.458 -21.362  1.00  0.00     0.020 C 
HETATM    2  C   UNL     1      13.425  -3.838 -20.607  1.00  0.00     0.059 C 
HETATM    3  C   UNL     1      13.149  -2.805 -19.535  1.00  0.00     0.023 C 
HETATM    4  C   UNL     1      12.157  -1.905 -19.791  1.00  0.00     0.016 C 
HETATM    5  C   UNL     1      11.698  -0.756 -18.919  1.00  0.00     0.069 C 
HETATM    6  N   UNL     1      11.426  -2.016 -20.974  1.00  0.00    -0.362 N 
HETATM    7  C   UNL     1      11.419  -3.119 -21.818  1.00  0.00     0.016 C 
HETATM    8  C   UNL     1      12.324  -4.104 -21.613  1.00  0.00     0.023 C 
HETATM    9  C   UNL     1      10.394  -3.122 -22.922  1.00  0.00     0.069 C 
HETATM   10  HN  UNL     1      10.682  -1.331 -21.119  1.00  0.00     0.165 HD
ENDROOT
BRANCH   3  11
HETATM   11  C   UNL     1      14.013  -2.802 -18.270  1.00  0.00     0.191 C 
HETATM   12  O   UNL     1      15.030  -2.105 -18.241  1.00  0.00    -0.287 OA
BRANCH  11  13
HETATM   13  C   UNL     1      13.723  -3.590 -16.986  1.00  0.00     0.015 A 
HETATM   14  C   UNL     1      13.896  -3.192 -15.651  1.00  0.00     0.015 A 
HETATM   15  C   UNL     1      13.667  -4.045 -14.562  1.00  0.00     0.001 A 
HETATM   16  C   UNL     1      13.177  -5.320 -14.772  1.00  0.00     0.000 A 
HETATM   17  C   UNL     1      12.918  -5.734 -16.073  1.00  0.00     0.001 A 
HETATM   18  C   UNL     1      13.200  -4.887 -17.160  1.00  0.00     0.015 A 
ENDBRANCH  11  13
ENDBRANCH   3  11
BRANCH   8  19
HETATM   19  C   UNL     1      12.353  -5.373 -22.442  1.00  0.00     0.191 C 
HETATM   20  O   UNL     1      11.741  -6.370 -22.058  1.00  0.00    -0.287 OA
BRANCH  19  21
HETATM   21  C   UNL     1      13.046  -5.459 -23.772  1.00  0.00     0.015 A 
HETATM   22  C   UNL     1      12.892  -4.537 -24.817  1.00  0.00     0.015 A 
HETATM   23  C   UNL     1      13.551  -4.720 -26.042  1.00  0.00     0.001 A 
HETATM   24  C   UNL     1      14.449  -5.771 -26.207  1.00  0.00     0.000 A 
HETATM   25  C   UNL     1      14.677  -6.649 -25.152  1.00  0.00     0.001 A 
HETATM   26  C   UNL     1      13.969  -6.504 -23.953  1.00  0.00     0.015 A 
ENDBRANCH  19  21
ENDBRANCH   8  19
TORSDOF 4
ENDMDL
