MODEL 1
REMARK VINA RESULT:      -8.3      0.000      0.000
REMARK  4 active torsions:
REMARK  status: ('A' for Active; 'I' for Inactive)
REMARK    1  A    between atoms: C_7  and  C_9 
REMARK    2  A    between atoms: N_18  and  C_19 
REMARK    3  A    between atoms: C_19  and  C_20 
REMARK       I    between atoms: C_20  and  N_22 
REMARK    4  A    between atoms: N_22  and  C_23 
ROOT
HETATM    1  C   UNL     1      13.730  -4.822 -24.447  1.00  0.00     0.048 C 
HETATM    2  C   UNL     1      13.006  -4.194 -23.289  1.00  0.00    -0.061 C 
HETATM    3  C   UNL     1      11.767  -3.595 -23.458  1.00  0.00     0.007 C 
HETATM    4  C   UNL     1      11.165  -2.952 -22.375  1.00  0.00     0.008 C 
HETATM    5  C   UNL     1      11.828  -2.810 -21.135  1.00  0.00    -0.049 C 
HETATM    6  C   UNL     1      11.079  -2.078 -20.054  1.00  0.00     0.049 C 
HETATM    7  C   UNL     1      13.128  -3.355 -20.973  1.00  0.00    -0.001 C 
HETATM    8  C   UNL     1      13.619  -4.137 -22.029  1.00  0.00     0.021 C 
ENDROOT
BRANCH   7   9
HETATM    9  C   UNL     1      13.979  -3.105 -19.720  1.00  0.00     0.066 C 
HETATM   10  C   UNL     1      13.701  -3.858 -18.432  1.00  0.00    -0.017 C 
HETATM   11  C   UNL     1      12.736  -5.017 -18.325  1.00  0.00     0.042 C 
HETATM   12  C   UNL     1      14.430  -3.492 -17.356  1.00  0.00     0.020 C 
HETATM   13  C   UNL     1      12.859  -5.858 -17.051  1.00  0.00     0.005 C 
HETATM   14  C   UNL     1      13.025  -4.953 -15.842  1.00  0.00     0.005 C 
HETATM   15  C   UNL     1      14.290  -4.120 -15.993  1.00  0.00     0.045 C 
HETATM   16  C   UNL     1      15.491  -2.461 -17.460  1.00  0.00     0.269 C 
HETATM   17  O   UNL     1      16.134  -2.114 -16.469  1.00  0.00    -0.266 OA
HETATM   18  N   UNL     1      15.763  -1.997 -18.728  1.00  0.00    -0.248 N 
HETATM   19  N   UNL     1      14.964  -2.257 -19.821  1.00  0.00    -0.294 N 
HETATM   20  HN  UNL     1      15.143  -1.786 -20.708  1.00  0.00     0.187 HD
BRANCH  18  21
HETATM   21  C   UNL     1      16.819  -1.000 -18.906  1.00  0.00     0.255 C 
BRANCH  21  22
HETATM   22  C   UNL     1      18.140  -1.530 -19.486  1.00  0.00     0.242 C 
HETATM   23  O   UNL     1      18.288  -2.742 -19.674  1.00  0.00    -0.271 OA
HETATM   24  N   UNL     1      19.027  -0.583 -19.976  1.00  0.00    -0.323 N 
HETATM   25  HN  UNL     1      18.626   0.321 -20.234  1.00  0.00     0.169 HD
BRANCH  24  26
HETATM   26  C   UNL     1      20.267  -0.922 -20.578  1.00  0.00     0.076 A 
HETATM   27  C   UNL     1      21.458  -0.988 -19.845  1.00  0.00     0.074 A 
HETATM   28  C   UNL     1      22.649  -1.331 -20.487  1.00  0.00     0.118 A 
HETATM   29  C   UNL     1      22.679  -1.634 -21.843  1.00  0.00     0.045 A 
HETATM   30  F   UNL     1      23.790  -1.364 -19.785  1.00  0.00    -0.206 F 
HETATM   31  C   UNL     1      21.498  -1.569 -22.581  1.00  0.00     0.047 A 
HETATM   32  C   UNL     1      20.311  -1.190 -21.951  1.00  0.00     0.143 A 
HETATM   33  F   UNL     1      19.182  -1.145 -22.675  1.00  0.00    -0.204 F 
ENDBRANCH  24  26
ENDBRANCH  21  22
ENDBRANCH  18  21
ENDBRANCH   7   9
TORSDOF 4
ENDMDL
MODEL 2
REMARK VINA RESULT:      -8.2      1.354      1.559
REMARK  4 active torsions:
REMARK  status: ('A' for Active; 'I' for Inactive)
REMARK    1  A    between atoms: C_7  and  C_9 
REMARK    2  A    between atoms: N_18  and  C_19 
REMARK    3  A    between atoms: C_19  and  C_20 
REMARK       I    between atoms: C_20  and  N_22 
REMARK    4  A    between atoms: N_22  and  C_23 
ROOT
HETATM    1  C   UNL     1      13.824  -4.453 -23.477  1.00  0.00     0.048 C 
HETATM    2  C   UNL     1      13.219  -3.772 -22.282  1.00  0.00    -0.061 C 
HETATM    3  C   UNL     1      11.900  -3.346 -22.291  1.00  0.00     0.007 C 
HETATM    4  C   UNL     1      11.401  -2.646 -21.192  1.00  0.00     0.008 C 
HETATM    5  C   UNL     1      12.230  -2.272 -20.110  1.00  0.00    -0.049 C 
HETATM    6  C   UNL     1      11.575  -1.501 -18.996  1.00  0.00     0.049 C 
HETATM    7  C   UNL     1      13.601  -2.639 -20.125  1.00  0.00    -0.001 C 
HETATM    8  C   UNL     1      14.015  -3.486 -21.163  1.00  0.00     0.021 C 
ENDROOT
BRANCH   7   9
HETATM    9  C   UNL     1      14.603  -2.137 -19.076  1.00  0.00     0.066 C 
HETATM   10  C   UNL     1      14.787  -2.878 -17.764  1.00  0.00    -0.017 C 
HETATM   11  C   UNL     1      14.179  -4.229 -17.467  1.00  0.00     0.042 C 
HETATM   12  C   UNL     1      15.608  -2.300 -16.861  1.00  0.00     0.020 C 
HETATM   13  C   UNL     1      14.763  -4.960 -16.254  1.00  0.00     0.005 C 
HETATM   14  C   UNL     1      14.946  -3.989 -15.099  1.00  0.00     0.005 C 
HETATM   15  C   UNL     1      15.909  -2.883 -15.504  1.00  0.00     0.045 C 
HETATM   16  C   UNL     1      16.340  -1.048 -17.176  1.00  0.00     0.269 C 
HETATM   17  O   UNL     1      17.066  -0.513 -16.339  1.00  0.00    -0.266 OA
HETATM   18  N   UNL     1      16.225  -0.588 -18.470  1.00  0.00    -0.248 N 
HETATM   19  N   UNL     1      15.307  -1.081 -19.373  1.00  0.00    -0.294 N 
HETATM   20  HN  UNL     1      15.179  -0.620 -20.274  1.00  0.00     0.187 HD
BRANCH  18  21
HETATM   21  C   UNL     1      16.944   0.626 -18.856  1.00  0.00     0.255 C 
BRANCH  21  22
HETATM   22  C   UNL     1      18.310   0.402 -19.524  1.00  0.00     0.242 C 
HETATM   23  O   UNL     1      19.146   1.310 -19.536  1.00  0.00    -0.271 OA
HETATM   24  N   UNL     1      18.615  -0.901 -19.890  1.00  0.00    -0.323 N 
HETATM   25  HN  UNL     1      18.102  -1.640 -19.404  1.00  0.00     0.169 HD
BRANCH  24  26
HETATM   26  C   UNL     1      19.853  -1.271 -20.478  1.00  0.00     0.076 A 
HETATM   27  C   UNL     1      20.931  -1.738 -19.717  1.00  0.00     0.074 A 
HETATM   28  C   UNL     1      22.124  -2.092 -20.347  1.00  0.00     0.118 A 
HETATM   29  C   UNL     1      22.263  -2.015 -21.729  1.00  0.00     0.045 A 
HETATM   30  F   UNL     1      23.161  -2.510 -19.609  1.00  0.00    -0.206 F 
HETATM   31  C   UNL     1      21.195  -1.550 -22.495  1.00  0.00     0.047 A 
HETATM   32  C   UNL     1      20.012  -1.158 -21.864  1.00  0.00     0.143 A 
HETATM   33  F   UNL     1      18.991  -0.725 -22.620  1.00  0.00    -0.204 F 
ENDBRANCH  24  26
ENDBRANCH  21  22
ENDBRANCH  18  21
ENDBRANCH   7   9
TORSDOF 4
ENDMDL
MODEL 3
REMARK VINA RESULT:      -8.1      8.096     10.172
REMARK  4 active torsions:
REMARK  status: ('A' for Active; 'I' for Inactive)
REMARK    1  A    between atoms: C_7  and  C_9 
REMARK    2  A    between atoms: N_18  and  C_19 
REMARK    3  A    between atoms: C_19  and  C_20 
REMARK       I    between atoms: C_20  and  N_22 
REMARK    4  A    between atoms: N_22  and  C_23 
ROOT
HETATM    1  C   UNL     1      23.386  -4.163 -21.927  1.00  0.00     0.048 C 
HETATM    2  C   UNL     1      22.830  -2.795 -21.647  1.00  0.00    -0.061 C 
HETATM    3  C   UNL     1      21.682  -2.344 -22.278  1.00  0.00     0.007 C 
HETATM    4  C   UNL     1      21.245  -1.039 -22.051  1.00  0.00     0.008 C 
HETATM    5  C   UNL     1      21.995  -0.130 -21.271  1.00  0.00    -0.049 C 
HETATM    6  C   UNL     1      21.425   1.255 -21.120  1.00  0.00     0.049 C 
HETATM    7  C   UNL     1      23.212  -0.559 -20.679  1.00  0.00    -0.001 C 
HETATM    8  C   UNL     1      23.521  -1.922 -20.793  1.00  0.00     0.021 C 
ENDROOT
BRANCH   7   9
HETATM    9  C   UNL     1      24.165   0.404 -19.957  1.00  0.00     0.066 C 
HETATM   10  C   UNL     1      24.095   0.578 -18.451  1.00  0.00    -0.017 C 
HETATM   11  C   UNL     1      23.258  -0.291 -17.540  1.00  0.00     0.042 C 
HETATM   12  C   UNL     1      24.897   1.526 -17.921  1.00  0.00     0.020 C 
HETATM   13  C   UNL     1      23.593  -0.192 -16.049  1.00  0.00     0.005 C 
HETATM   14  C   UNL     1      23.803   1.260 -15.656  1.00  0.00     0.005 C 
HETATM   15  C   UNL     1      24.962   1.846 -16.449  1.00  0.00     0.045 C 
HETATM   16  C   UNL     1      25.842   2.296 -18.767  1.00  0.00     0.269 C 
HETATM   17  O   UNL     1      26.552   3.176 -18.281  1.00  0.00    -0.266 OA
HETATM   18  N   UNL     1      25.934   1.904 -20.084  1.00  0.00    -0.248 N 
HETATM   19  N   UNL     1      25.050   1.030 -20.681  1.00  0.00    -0.294 N 
HETATM   20  HN  UNL     1      25.089   0.872 -21.689  1.00  0.00     0.187 HD
BRANCH  18  21
HETATM   21  C   UNL     1      26.868   2.602 -20.968  1.00  0.00     0.255 C 
BRANCH  21  22
HETATM   22  C   UNL     1      26.508   2.581 -22.462  1.00  0.00     0.242 C 
HETATM   23  O   UNL     1      26.716   1.565 -23.132  1.00  0.00    -0.271 OA
HETATM   24  N   UNL     1      25.756   3.648 -22.933  1.00  0.00    -0.323 N 
HETATM   25  HN  UNL     1      25.219   4.166 -22.235  1.00  0.00     0.169 HD
BRANCH  24  26
HETATM   26  C   UNL     1      25.312   3.748 -24.278  1.00  0.00     0.076 A 
HETATM   27  C   UNL     1      26.204   3.878 -25.349  1.00  0.00     0.074 A 
HETATM   28  C   UNL     1      25.713   3.968 -26.652  1.00  0.00     0.118 A 
HETATM   29  C   UNL     1      24.349   3.908 -26.918  1.00  0.00     0.045 A 
HETATM   30  F   UNL     1      26.570   4.121 -27.671  1.00  0.00    -0.206 F 
HETATM   31  C   UNL     1      23.454   3.780 -25.857  1.00  0.00     0.047 A 
HETATM   32  C   UNL     1      23.940   3.728 -24.548  1.00  0.00     0.143 A 
HETATM   33  F   UNL     1      23.063   3.593 -23.540  1.00  0.00    -0.204 F 
ENDBRANCH  24  26
ENDBRANCH  21  22
ENDBRANCH  18  21
ENDBRANCH   7   9
TORSDOF 4
ENDMDL
MODEL 4
REMARK VINA RESULT:      -8.1      2.339      3.151
REMARK  4 active torsions:
REMARK  status: ('A' for Active; 'I' for Inactive)
REMARK    1  A    between atoms: C_7  and  C_9 
REMARK    2  A    between atoms: N_18  and  C_19 
REMARK    3  A    between atoms: C_19  and  C_20 
REMARK       I    between atoms: C_20  and  N_22 
REMARK    4  A    between atoms: N_22  and  C_23 
ROOT
HETATM    1  C   UNL     1       8.813  -3.305 -21.295  1.00  0.00     0.048 C 
HETATM    2  C   UNL     1      10.313  -3.232 -21.347  1.00  0.00    -0.061 C 
HETATM    3  C   UNL     1      11.026  -3.834 -22.371  1.00  0.00     0.007 C 
HETATM    4  C   UNL     1      12.421  -3.812 -22.338  1.00  0.00     0.008 C 
HETATM    5  C   UNL     1      13.129  -3.277 -21.238  1.00  0.00    -0.049 C 
HETATM    6  C   UNL     1      14.631  -3.331 -21.315  1.00  0.00     0.049 C 
HETATM    7  C   UNL     1      12.407  -2.722 -20.148  1.00  0.00    -0.001 C 
HETATM    8  C   UNL     1      11.018  -2.613 -20.304  1.00  0.00     0.021 C 
ENDROOT
BRANCH   7   9
HETATM    9  C   UNL     1      13.090  -2.271 -18.849  1.00  0.00     0.066 C 
HETATM   10  C   UNL     1      13.274  -3.239 -17.694  1.00  0.00    -0.017 C 
HETATM   11  C   UNL     1      12.999  -4.722 -17.786  1.00  0.00     0.042 C 
HETATM   12  C   UNL     1      13.785  -2.722 -16.557  1.00  0.00     0.020 C 
HETATM   13  C   UNL     1      13.577  -5.569 -16.648  1.00  0.00     0.005 C 
HETATM   14  C   UNL     1      13.341  -4.880 -15.315  1.00  0.00     0.005 C 
HETATM   15  C   UNL     1      14.034  -3.525 -15.306  1.00  0.00     0.045 C 
HETATM   16  C   UNL     1      14.206  -1.301 -16.478  1.00  0.00     0.269 C 
HETATM   17  O   UNL     1      14.647  -0.830 -15.430  1.00  0.00    -0.266 OA
HETATM   18  N   UNL     1      14.157  -0.588 -17.656  1.00  0.00    -0.248 N 
HETATM   19  N   UNL     1      13.532  -1.046 -18.797  1.00  0.00    -0.294 N 
HETATM   20  HN  UNL     1      13.417  -0.427 -19.599  1.00  0.00     0.187 HD
BRANCH  18  21
HETATM   21  C   UNL     1      14.586   0.810 -17.656  1.00  0.00     0.255 C 
BRANCH  21  22
HETATM   22  C   UNL     1      16.044   1.056 -18.076  1.00  0.00     0.242 C 
HETATM   23  O   UNL     1      16.931   1.115 -17.218  1.00  0.00    -0.271 OA
HETATM   24  N   UNL     1      16.320   0.979 -19.433  1.00  0.00    -0.323 N 
HETATM   25  HN  UNL     1      15.656   0.447 -20.000  1.00  0.00     0.169 HD
BRANCH  24  26
HETATM   26  C   UNL     1      17.624   1.142 -19.969  1.00  0.00     0.076 A 
HETATM   27  C   UNL     1      18.191   2.404 -20.182  1.00  0.00     0.074 A 
HETATM   28  C   UNL     1      19.480   2.505 -20.707  1.00  0.00     0.118 A 
HETATM   29  C   UNL     1      20.231   1.374 -21.006  1.00  0.00     0.045 A 
HETATM   30  F   UNL     1      20.006   3.716 -20.935  1.00  0.00    -0.206 F 
HETATM   31  C   UNL     1      19.673   0.113 -20.798  1.00  0.00     0.047 A 
HETATM   32  C   UNL     1      18.370   0.007 -20.309  1.00  0.00     0.143 A 
HETATM   33  F   UNL     1      17.855  -1.215 -20.104  1.00  0.00    -0.204 F 
ENDBRANCH  24  26
ENDBRANCH  21  22
ENDBRANCH  18  21
ENDBRANCH   7   9
TORSDOF 4
ENDMDL
MODEL 5
REMARK VINA RESULT:      -8.0      1.290      1.707
REMARK  4 active torsions:
REMARK  status: ('A' for Active; 'I' for Inactive)
REMARK    1  A    between atoms: C_7  and  C_9 
REMARK    2  A    between atoms: N_18  and  C_19 
REMARK    3  A    between atoms: C_19  and  C_20 
REMARK       I    between atoms: C_20  and  N_22 
REMARK    4  A    between atoms: N_22  and  C_23 
ROOT
HETATM    1  C   UNL     1      14.056  -4.696 -24.260  1.00  0.00     0.048 C 
HETATM    2  C   UNL     1      13.178  -4.144 -23.172  1.00  0.00    -0.061 C 
HETATM    3  C   UNL     1      11.899  -3.685 -23.445  1.00  0.00     0.007 C 
HETATM    4  C   UNL     1      11.148  -3.106 -22.422  1.00  0.00     0.008 C 
HETATM    5  C   UNL     1      11.691  -2.884 -21.137  1.00  0.00    -0.049 C 
HETATM    6  C   UNL     1      10.784  -2.232 -20.128  1.00  0.00     0.049 C 
HETATM    7  C   UNL     1      13.026  -3.283 -20.866  1.00  0.00    -0.001 C 
HETATM    8  C   UNL     1      13.680  -4.012 -21.869  1.00  0.00     0.021 C 
ENDROOT
BRANCH   7   9
HETATM    9  C   UNL     1      13.744  -2.933 -19.555  1.00  0.00     0.066 C 
HETATM   10  C   UNL     1      13.605  -3.825 -18.334  1.00  0.00    -0.017 C 
HETATM   11  C   UNL     1      12.943  -5.184 -18.355  1.00  0.00     0.042 C 
HETATM   12  C   UNL     1      14.183  -3.379 -17.199  1.00  0.00     0.020 C 
HETATM   13  C   UNL     1      13.217  -6.065 -17.132  1.00  0.00     0.005 C 
HETATM   14  C   UNL     1      13.114  -5.240 -15.861  1.00  0.00     0.005 C 
HETATM   15  C   UNL     1      14.147  -4.122 -15.888  1.00  0.00     0.045 C 
HETATM   16  C   UNL     1      14.969  -2.120 -17.178  1.00  0.00     0.269 C 
HETATM   17  O   UNL     1      15.471  -1.706 -16.133  1.00  0.00    -0.266 OA
HETATM   18  N   UNL     1      15.170  -1.511 -18.397  1.00  0.00    -0.248 N 
HETATM   19  N   UNL     1      14.499  -1.870 -19.547  1.00  0.00    -0.294 N 
HETATM   20  HN  UNL     1      14.593  -1.305 -20.391  1.00  0.00     0.187 HD
BRANCH  18  21
HETATM   21  C   UNL     1      15.961  -0.282 -18.453  1.00  0.00     0.255 C 
BRANCH  21  22
HETATM   22  C   UNL     1      17.426  -0.456 -18.883  1.00  0.00     0.242 C 
HETATM   23  O   UNL     1      18.144  -1.278 -18.305  1.00  0.00    -0.271 OA
HETATM   24  N   UNL     1      17.806   0.174 -20.059  1.00  0.00    -0.323 N 
HETATM   25  HN  UNL     1      17.054   0.403 -20.713  1.00  0.00     0.169 HD
BRANCH  24  26
HETATM   26  C   UNL     1      19.112   0.072 -20.606  1.00  0.00     0.076 A 
HETATM   27  C   UNL     1      19.426  -0.839 -21.621  1.00  0.00     0.074 A 
HETATM   28  C   UNL     1      20.726  -0.894 -22.126  1.00  0.00     0.118 A 
HETATM   29  C   UNL     1      21.721  -0.043 -21.657  1.00  0.00     0.045 A 
HETATM   30  F   UNL     1      21.027  -1.788 -23.077  1.00  0.00    -0.206 F 
HETATM   31  C   UNL     1      21.417   0.866 -20.645  1.00  0.00     0.047 A 
HETATM   32  C   UNL     1      20.127   0.898 -20.111  1.00  0.00     0.143 A 
HETATM   33  F   UNL     1      19.851   1.789 -19.146  1.00  0.00    -0.204 F 
ENDBRANCH  24  26
ENDBRANCH  21  22
ENDBRANCH  18  21
ENDBRANCH   7   9
TORSDOF 4
ENDMDL
MODEL 6
REMARK VINA RESULT:      -8.0      2.524      3.382
REMARK  4 active torsions:
REMARK  status: ('A' for Active; 'I' for Inactive)
REMARK    1  A    between atoms: C_7  and  C_9 
REMARK    2  A    between atoms: N_18  and  C_19 
REMARK    3  A    between atoms: C_19  and  C_20 
REMARK       I    between atoms: C_20  and  N_22 
REMARK    4  A    between atoms: N_22  and  C_23 
ROOT
HETATM    1  C   UNL     1       9.087  -3.317 -21.630  1.00  0.00     0.048 C 
HETATM    2  C   UNL     1      10.588  -3.257 -21.588  1.00  0.00    -0.061 C 
HETATM    3  C   UNL     1      11.359  -3.903 -22.541  1.00  0.00     0.007 C 
HETATM    4  C   UNL     1      12.749  -3.890 -22.420  1.00  0.00     0.008 C 
HETATM    5  C   UNL     1      13.391  -3.320 -21.298  1.00  0.00    -0.049 C 
HETATM    6  C   UNL     1      14.894  -3.388 -21.276  1.00  0.00     0.049 C 
HETATM    7  C   UNL     1      12.607  -2.719 -20.278  1.00  0.00    -0.001 C 
HETATM    8  C   UNL     1      11.232  -2.605 -20.526  1.00  0.00     0.021 C 
ENDROOT
BRANCH   7   9
HETATM    9  C   UNL     1      13.210  -2.224 -18.955  1.00  0.00     0.066 C 
HETATM   10  C   UNL     1      13.372  -3.167 -17.777  1.00  0.00    -0.017 C 
HETATM   11  C   UNL     1      13.154  -4.661 -17.857  1.00  0.00     0.042 C 
HETATM   12  C   UNL     1      13.809  -2.615 -16.625  1.00  0.00     0.020 C 
HETATM   13  C   UNL     1      13.705  -5.469 -16.679  1.00  0.00     0.005 C 
HETATM   14  C   UNL     1      13.382  -4.769 -15.370  1.00  0.00     0.005 C 
HETATM   15  C   UNL     1      14.026  -3.390 -15.350  1.00  0.00     0.045 C 
HETATM   16  C   UNL     1      14.176  -1.179 -16.550  1.00  0.00     0.269 C 
HETATM   17  O   UNL     1      14.549  -0.677 -15.490  1.00  0.00    -0.266 OA
HETATM   18  N   UNL     1      14.159  -0.486 -17.741  1.00  0.00    -0.248 N 
HETATM   19  N   UNL     1      13.607  -0.983 -18.902  1.00  0.00    -0.294 N 
HETATM   20  HN  UNL     1      13.508  -0.380 -19.719  1.00  0.00     0.187 HD
BRANCH  18  21
HETATM   21  C   UNL     1      14.539   0.927 -17.743  1.00  0.00     0.255 C 
BRANCH  21  22
HETATM   22  C   UNL     1      15.996   1.220 -18.135  1.00  0.00     0.242 C 
HETATM   23  O   UNL     1      16.909   0.973 -17.341  1.00  0.00    -0.271 OA
HETATM   24  N   UNL     1      16.227   1.549 -19.463  1.00  0.00    -0.323 N 
HETATM   25  HN  UNL     1      15.516   1.248 -20.134  1.00  0.00     0.169 HD
BRANCH  24  26
HETATM   26  C   UNL     1      17.522   1.806 -19.983  1.00  0.00     0.076 A 
HETATM   27  C   UNL     1      18.287   0.812 -20.605  1.00  0.00     0.074 A 
HETATM   28  C   UNL     1      19.553   1.121 -21.103  1.00  0.00     0.118 A 
HETATM   29  C   UNL     1      20.070   2.410 -21.018  1.00  0.00     0.045 A 
HETATM   30  F   UNL     1      20.291   0.158 -21.671  1.00  0.00    -0.206 F 
HETATM   31  C   UNL     1      19.315   3.406 -20.399  1.00  0.00     0.047 A 
HETATM   32  C   UNL     1      18.064   3.091 -19.865  1.00  0.00     0.143 A 
HETATM   33  F   UNL     1      17.347   4.066 -19.284  1.00  0.00    -0.204 F 
ENDBRANCH  24  26
ENDBRANCH  21  22
ENDBRANCH  18  21
ENDBRANCH   7   9
TORSDOF 4
ENDMDL
MODEL 7
REMARK VINA RESULT:      -8.0      4.592      6.670
REMARK  4 active torsions:
REMARK  status: ('A' for Active; 'I' for Inactive)
REMARK    1  A    between atoms: C_7  and  C_9 
REMARK    2  A    between atoms: N_18  and  C_19 
REMARK    3  A    between atoms: C_19  and  C_20 
REMARK       I    between atoms: C_20  and  N_22 
REMARK    4  A    between atoms: N_22  and  C_23 
ROOT
HETATM    1  C   UNL     1      13.827  -4.859 -26.877  1.00  0.00     0.048 C 
HETATM    2  C   UNL     1      14.119  -5.304 -25.471  1.00  0.00    -0.061 C 
HETATM    3  C   UNL     1      14.629  -6.565 -25.208  1.00  0.00     0.007 C 
HETATM    4  C   UNL     1      14.810  -6.968 -23.884  1.00  0.00     0.008 C 
HETATM    5  C   UNL     1      14.395  -6.162 -22.800  1.00  0.00    -0.049 C 
HETATM    6  C   UNL     1      14.627  -6.718 -21.421  1.00  0.00     0.049 C 
HETATM    7  C   UNL     1      13.803  -4.897 -23.059  1.00  0.00    -0.001 C 
HETATM    8  C   UNL     1      13.800  -4.465 -24.393  1.00  0.00     0.021 C 
ENDROOT
BRANCH   7   9
HETATM    9  C   UNL     1      13.180  -4.034 -21.953  1.00  0.00     0.066 C 
HETATM   10  C   UNL     1      11.673  -3.963 -21.783  1.00  0.00    -0.017 C 
HETATM   11  C   UNL     1      10.699  -4.852 -22.522  1.00  0.00     0.042 C 
HETATM   12  C   UNL     1      11.217  -3.095 -20.855  1.00  0.00     0.020 C 
HETATM   13  C   UNL     1       9.274  -4.875 -21.959  1.00  0.00     0.005 C 
HETATM   14  C   UNL     1       8.830  -3.465 -21.608  1.00  0.00     0.005 C 
HETATM   15  C   UNL     1       9.756  -2.883 -20.549  1.00  0.00     0.045 C 
HETATM   16  C   UNL     1      12.150  -2.314 -20.006  1.00  0.00     0.269 C 
HETATM   17  O   UNL     1      11.726  -1.506 -19.180  1.00  0.00    -0.266 OA
HETATM   18  N   UNL     1      13.487  -2.618 -20.138  1.00  0.00    -0.248 N 
HETATM   19  N   UNL     1      13.992  -3.404 -21.152  1.00  0.00    -0.294 N 
HETATM   20  HN  UNL     1      15.001  -3.492 -21.275  1.00  0.00     0.187 HD
BRANCH  18  21
HETATM   21  C   UNL     1      14.460  -1.906 -19.308  1.00  0.00     0.255 C 
BRANCH  21  22
HETATM   22  C   UNL     1      14.788  -2.565 -17.960  1.00  0.00     0.242 C 
HETATM   23  O   UNL     1      15.961  -2.638 -17.578  1.00  0.00    -0.271 OA
HETATM   24  N   UNL     1      13.713  -2.852 -17.131  1.00  0.00    -0.323 N 
HETATM   25  HN  UNL     1      12.857  -2.318 -17.300  1.00  0.00     0.169 HD
BRANCH  24  26
HETATM   26  C   UNL     1      13.861  -3.422 -15.840  1.00  0.00     0.076 A 
HETATM   27  C   UNL     1      13.992  -4.802 -15.645  1.00  0.00     0.074 A 
HETATM   28  C   UNL     1      14.139  -5.309 -14.353  1.00  0.00     0.118 A 
HETATM   29  C   UNL     1      14.183  -4.468 -13.246  1.00  0.00     0.045 A 
HETATM   30  F   UNL     1      14.236  -6.633 -14.171  1.00  0.00    -0.206 F 
HETATM   31  C   UNL     1      14.051  -3.093 -13.431  1.00  0.00     0.047 A 
HETATM   32  C   UNL     1      13.866  -2.585 -14.719  1.00  0.00     0.143 A 
HETATM   33  F   UNL     1      13.753  -1.257 -14.878  1.00  0.00    -0.204 F 
ENDBRANCH  24  26
ENDBRANCH  21  22
ENDBRANCH  18  21
ENDBRANCH   7   9
TORSDOF 4
ENDMDL
MODEL 8
REMARK VINA RESULT:      -7.9      4.344      7.583
REMARK  4 active torsions:
REMARK  status: ('A' for Active; 'I' for Inactive)
REMARK    1  A    between atoms: C_7  and  C_9 
REMARK    2  A    between atoms: N_18  and  C_19 
REMARK    3  A    between atoms: C_19  and  C_20 
REMARK       I    between atoms: C_20  and  N_22 
REMARK    4  A    between atoms: N_22  and  C_23 
ROOT
HETATM    1  C   UNL     1      18.671  -6.210 -20.038  1.00  0.00     0.048 C 
HETATM    2  C   UNL     1      17.354  -6.875 -20.325  1.00  0.00    -0.061 C 
HETATM    3  C   UNL     1      17.209  -8.250 -20.233  1.00  0.00     0.007 C 
HETATM    4  C   UNL     1      15.993  -8.835 -20.587  1.00  0.00     0.008 C 
HETATM    5  C   UNL     1      14.934  -8.074 -21.132  1.00  0.00    -0.049 C 
HETATM    6  C   UNL     1      13.682  -8.827 -21.492  1.00  0.00     0.049 C 
HETATM    7  C   UNL     1      15.098  -6.674 -21.300  1.00  0.00    -0.001 C 
HETATM    8  C   UNL     1      16.267  -6.109 -20.773  1.00  0.00     0.021 C 
ENDROOT
BRANCH   7   9
HETATM    9  C   UNL     1      14.066  -5.804 -22.031  1.00  0.00     0.066 C 
HETATM   10  C   UNL     1      14.046  -5.734 -23.547  1.00  0.00    -0.017 C 
HETATM   11  C   UNL     1      14.870  -6.631 -24.443  1.00  0.00     0.042 C 
HETATM   12  C   UNL     1      13.175  -4.860 -24.094  1.00  0.00     0.020 C 
HETATM   13  C   UNL     1      14.451  -6.652 -25.916  1.00  0.00     0.005 C 
HETATM   14  C   UNL     1      14.157  -5.240 -26.394  1.00  0.00     0.005 C 
HETATM   15  C   UNL     1      13.017  -4.647 -25.578  1.00  0.00     0.045 C 
HETATM   16  C   UNL     1      12.244  -4.070 -23.251  1.00  0.00     0.269 C 
HETATM   17  O   UNL     1      11.471  -3.256 -23.754  1.00  0.00    -0.266 OA
HETATM   18  N   UNL     1      12.241  -4.372 -21.906  1.00  0.00    -0.248 N 
HETATM   19  N   UNL     1      13.193  -5.165 -21.302  1.00  0.00    -0.294 N 
HETATM   20  HN  UNL     1      13.216  -5.252 -20.286  1.00  0.00     0.187 HD
BRANCH  18  21
HETATM   21  C   UNL     1      11.326  -3.651 -21.021  1.00  0.00     0.255 C 
BRANCH  21  22
HETATM   22  C   UNL     1      11.795  -3.499 -19.566  1.00  0.00     0.242 C 
HETATM   23  O   UNL     1      11.673  -4.442 -18.777  1.00  0.00    -0.271 OA
HETATM   24  N   UNL     1      12.541  -2.368 -19.269  1.00  0.00    -0.323 N 
HETATM   25  HN  UNL     1      13.008  -1.914 -20.058  1.00  0.00     0.169 HD
BRANCH  24  26
HETATM   26  C   UNL     1      13.078  -2.110 -17.981  1.00  0.00     0.076 A 
HETATM   27  C   UNL     1      14.221  -2.763 -17.505  1.00  0.00     0.074 A 
HETATM   28  C   UNL     1      14.709  -2.467 -16.232  1.00  0.00     0.118 A 
HETATM   29  C   UNL     1      14.097  -1.515 -15.425  1.00  0.00     0.045 A 
HETATM   30  F   UNL     1      15.787  -3.117 -15.771  1.00  0.00    -0.206 F 
HETATM   31  C   UNL     1      12.958  -0.860 -15.891  1.00  0.00     0.047 A 
HETATM   32  C   UNL     1      12.444  -1.181 -17.149  1.00  0.00     0.143 A 
HETATM   33  F   UNL     1      11.353  -0.531 -17.585  1.00  0.00    -0.204 F 
ENDBRANCH  24  26
ENDBRANCH  21  22
ENDBRANCH  18  21
ENDBRANCH   7   9
TORSDOF 4
ENDMDL
MODEL 9
REMARK VINA RESULT:      -7.9      1.853      2.704
REMARK  4 active torsions:
REMARK  status: ('A' for Active; 'I' for Inactive)
REMARK    1  A    between atoms: C_7  and  C_9 
REMARK    2  A    between atoms: N_18  and  C_19 
REMARK    3  A    between atoms: C_19  and  C_20 
REMARK       I    between atoms: C_20  and  N_22 
REMARK    4  A    between atoms: N_22  and  C_23 
ROOT
HETATM    1  C   UNL     1      13.095  -4.485 -25.208  1.00  0.00     0.048 C 
HETATM    2  C   UNL     1      13.878  -4.940 -24.008  1.00  0.00    -0.061 C 
HETATM    3  C   UNL     1      14.269  -6.262 -23.866  1.00  0.00     0.007 C 
HETATM    4  C   UNL     1      14.924  -6.660 -22.700  1.00  0.00     0.008 C 
HETATM    5  C   UNL     1      15.112  -5.774 -21.616  1.00  0.00    -0.049 C 
HETATM    6  C   UNL     1      15.814  -6.332 -20.407  1.00  0.00     0.049 C 
HETATM    7  C   UNL     1      14.649  -4.436 -21.721  1.00  0.00    -0.001 C 
HETATM    8  C   UNL     1      14.155  -4.038 -22.971  1.00  0.00     0.021 C 
ENDROOT
BRANCH   7   9
HETATM    9  C   UNL     1      14.667  -3.460 -20.536  1.00  0.00     0.066 C 
HETATM   10  C   UNL     1      13.398  -2.752 -20.097  1.00  0.00    -0.017 C 
HETATM   11  C   UNL     1      12.023  -3.080 -20.630  1.00  0.00     0.042 C 
HETATM   12  C   UNL     1      13.535  -1.832 -19.118  1.00  0.00     0.020 C 
HETATM   13  C   UNL     1      10.852  -2.517 -19.818  1.00  0.00     0.005 C 
HETATM   14  C   UNL     1      11.139  -1.080 -19.418  1.00  0.00     0.005 C 
HETATM   15  C   UNL     1      12.392  -1.025 -18.556  1.00  0.00     0.045 C 
HETATM   16  C   UNL     1      14.847  -1.589 -18.467  1.00  0.00     0.269 C 
HETATM   17  O   UNL     1      14.969  -0.731 -17.594  1.00  0.00    -0.266 OA
HETATM   18  N   UNL     1      15.871  -2.435 -18.834  1.00  0.00    -0.248 N 
HETATM   19  N   UNL     1      15.798  -3.296 -19.908  1.00  0.00    -0.294 N 
HETATM   20  HN  UNL     1      16.628  -3.807 -20.211  1.00  0.00     0.187 HD
BRANCH  18  21
HETATM   21  C   UNL     1      17.183  -2.270 -18.209  1.00  0.00     0.255 C 
BRANCH  21  22
HETATM   22  C   UNL     1      18.388  -2.606 -19.101  1.00  0.00     0.242 C 
HETATM   23  O   UNL     1      18.568  -3.766 -19.484  1.00  0.00    -0.271 OA
HETATM   24  N   UNL     1      19.098  -1.530 -19.615  1.00  0.00    -0.323 N 
HETATM   25  HN  UNL     1      18.599  -0.639 -19.661  1.00  0.00     0.169 HD
BRANCH  24  26
HETATM   26  C   UNL     1      20.208  -1.680 -20.487  1.00  0.00     0.076 A 
HETATM   27  C   UNL     1      21.445  -2.163 -20.043  1.00  0.00     0.074 A 
HETATM   28  C   UNL     1      22.502  -2.295 -20.944  1.00  0.00     0.118 A 
HETATM   29  C   UNL     1      22.350  -1.979 -22.290  1.00  0.00     0.045 A 
HETATM   30  F   UNL     1      23.691  -2.731 -20.506  1.00  0.00    -0.206 F 
HETATM   31  C   UNL     1      21.122  -1.496 -22.740  1.00  0.00     0.047 A 
HETATM   32  C   UNL     1      20.073  -1.326 -21.834  1.00  0.00     0.143 A 
HETATM   33  F   UNL     1      18.895  -0.872 -22.289  1.00  0.00    -0.204 F 
ENDBRANCH  24  26
ENDBRANCH  21  22
ENDBRANCH  18  21
ENDBRANCH   7   9
TORSDOF 4
ENDMDL
