MODEL 1
REMARK VINA RESULT:      -8.1      0.000      0.000
REMARK  5 active torsions:
REMARK  status: ('A' for Active; 'I' for Inactive)
REMARK    1  A    between atoms: C_5  and  C_21 
REMARK    2  A    between atoms: C_7  and  S_8 
REMARK    3  A    between atoms: S_8  and  N_11 
REMARK    4  A    between atoms: N_11  and  C_12 
REMARK    5  A    between atoms: C_15  and  C_18 
REMARK       I    between atoms: C_18  and  N_20 
ROOT
HETATM    1  C   UNL     1      10.873  -3.471 -22.563  1.00  0.00     0.050 C 
HETATM    2  C   UNL     1      11.615  -2.924 -21.378  1.00  0.00    -0.039 C 
HETATM    3  C   UNL     1      10.999  -1.923 -20.606  1.00  0.00     0.009 C 
HETATM    4  C   UNL     1      11.665  -1.316 -19.531  1.00  0.00     0.014 C 
HETATM    5  C   UNL     1      12.950  -1.724 -19.153  1.00  0.00    -0.006 C 
HETATM    6  C   UNL     1      13.498  -2.812 -19.835  1.00  0.00     0.039 C 
HETATM    7  C   UNL     1      12.897  -3.340 -20.995  1.00  0.00     0.081 C 
ENDROOT
BRANCH   7   8
HETATM    8  S   UNL     1      13.880  -4.511 -21.928  1.00  0.00     0.246 S 
HETATM    9  O   UNL     1      13.297  -5.822 -21.718  1.00  0.00    -0.206 OA
HETATM   10  O   UNL     1      14.131  -4.028 -23.270  1.00  0.00    -0.206 OA
BRANCH   8  11
HETATM   11  N   UNL     1      15.357  -4.544 -21.085  1.00  0.00    -0.181 NA
HETATM   12  HN  UNL     1      15.438  -3.690 -20.528  1.00  0.00     0.146 HD
BRANCH  11  13
HETATM   13  C   UNL     1      15.746  -5.747 -20.427  1.00  0.00     0.022 A 
HETATM   14  C   UNL     1      16.377  -6.751 -21.156  1.00  0.00     0.025 A 
HETATM   15  C   UNL     1      16.759  -7.939 -20.524  1.00  0.00     0.019 A 
HETATM   16  C   UNL     1      16.510  -8.138 -19.157  1.00  0.00     0.031 A 
HETATM   17  C   UNL     1      15.883  -7.117 -18.430  1.00  0.00     0.019 A 
HETATM   18  C   UNL     1      15.498  -5.928 -19.066  1.00  0.00     0.025 A 
BRANCH  16  19
HETATM   19  C   UNL     1      16.925  -9.443 -18.559  1.00  0.00     0.249 C 
HETATM   20  O   UNL     1      16.128 -10.365 -18.429  1.00  0.00    -0.268 OA
HETATM   21  N   UNL     1      18.217  -9.599 -18.140  1.00  0.00    -0.366 N 
HETATM   22  HN1 UNL     1      18.933  -8.893 -18.169  1.00  0.00     0.159 HD
HETATM   23  HN2 UNL     1      18.448 -10.486 -17.710  1.00  0.00     0.159 HD
ENDBRANCH  16  19
ENDBRANCH  11  13
ENDBRANCH   8  11
ENDBRANCH   7   8
BRANCH   5  24
HETATM   24  C   UNL     1      13.666  -0.946 -18.065  1.00  0.00     0.065 A 
HETATM   25  C   UNL     1      13.926  -1.567 -16.714  1.00  0.00    -0.017 A 
HETATM   26  C   UNL     1      13.545  -2.981 -16.357  1.00  0.00     0.042 C 
HETATM   27  C   UNL     1      14.579  -0.799 -15.821  1.00  0.00     0.020 A 
HETATM   28  C   UNL     1      14.167  -3.524 -15.071  1.00  0.00     0.005 C 
HETATM   29  C   UNL     1      14.096  -2.467 -13.982  1.00  0.00     0.005 C 
HETATM   30  C   UNL     1      14.890  -1.237 -14.410  1.00  0.00     0.045 C 
HETATM   31  C   UNL     1      15.078   0.553 -16.181  1.00  0.00     0.268 A 
HETATM   32  O   UNL     1      15.719   1.207 -15.360  1.00  0.00    -0.266 OA
HETATM   33  N   UNL     1      14.796   0.980 -17.466  1.00  0.00    -0.261 N 
HETATM   34  C   UNL     1      15.301   2.261 -17.925  1.00  0.00     0.181 C 
HETATM   35  N   UNL     1      14.091   0.243 -18.386  1.00  0.00    -0.295 N 
HETATM   36  HN  UNL     1      13.901   0.624 -19.313  1.00  0.00     0.187 HD
ENDBRANCH   5  24
TORSDOF 5
ENDMDL
MODEL 2
REMARK VINA RESULT:      -8.0      2.422      2.929
REMARK  5 active torsions:
REMARK  status: ('A' for Active; 'I' for Inactive)
REMARK    1  A    between atoms: C_5  and  C_21 
REMARK    2  A    between atoms: C_7  and  S_8 
REMARK    3  A    between atoms: S_8  and  N_11 
REMARK    4  A    between atoms: N_11  and  C_12 
REMARK    5  A    between atoms: C_15  and  C_18 
REMARK       I    between atoms: C_18  and  N_20 
ROOT
HETATM    1  C   UNL     1      14.077  -5.106 -22.659  1.00  0.00     0.050 C 
HETATM    2  C   UNL     1      14.163  -4.055 -21.590  1.00  0.00    -0.039 C 
HETATM    3  C   UNL     1      15.430  -3.556 -21.241  1.00  0.00     0.009 C 
HETATM    4  C   UNL     1      15.590  -2.629 -20.200  1.00  0.00     0.014 C 
HETATM    5  C   UNL     1      14.484  -2.126 -19.505  1.00  0.00    -0.006 C 
HETATM    6  C   UNL     1      13.220  -2.520 -19.949  1.00  0.00     0.039 C 
HETATM    7  C   UNL     1      13.054  -3.546 -20.901  1.00  0.00     0.081 C 
ENDROOT
BRANCH   7   8
HETATM    8  S   UNL     1      11.383  -4.150 -21.124  1.00  0.00     0.246 S 
HETATM    9  O   UNL     1      10.554  -3.489 -20.136  1.00  0.00    -0.206 OA
HETATM   10  O   UNL     1      11.007  -4.137 -22.522  1.00  0.00    -0.206 OA
BRANCH   8  11
HETATM   11  N   UNL     1      11.478  -5.769 -20.610  1.00  0.00    -0.181 NA
HETATM   12  HN  UNL     1      11.688  -6.360 -21.418  1.00  0.00     0.146 HD
BRANCH  11  13
HETATM   13  C   UNL     1      12.204  -6.071 -19.421  1.00  0.00     0.022 A 
HETATM   14  C   UNL     1      13.350  -6.858 -19.502  1.00  0.00     0.025 A 
HETATM   15  C   UNL     1      14.068  -7.168 -18.342  1.00  0.00     0.019 A 
HETATM   16  C   UNL     1      13.647  -6.698 -17.088  1.00  0.00     0.031 A 
HETATM   17  C   UNL     1      12.498  -5.899 -17.019  1.00  0.00     0.019 A 
HETATM   18  C   UNL     1      11.777  -5.592 -18.182  1.00  0.00     0.025 A 
BRANCH  16  19
HETATM   19  C   UNL     1      14.452  -7.092 -15.893  1.00  0.00     0.249 C 
HETATM   20  O   UNL     1      15.568  -7.586 -16.013  1.00  0.00    -0.268 OA
HETATM   21  N   UNL     1      13.922  -6.906 -14.647  1.00  0.00    -0.366 N 
HETATM   22  HN1 UNL     1      13.005  -6.546 -14.447  1.00  0.00     0.159 HD
HETATM   23  HN2 UNL     1      14.486  -7.218 -13.866  1.00  0.00     0.159 HD
ENDBRANCH  16  19
ENDBRANCH  11  13
ENDBRANCH   8  11
ENDBRANCH   7   8
BRANCH   5  24
HETATM   24  C   UNL     1      14.730  -1.224 -18.309  1.00  0.00     0.065 A 
HETATM   25  C   UNL     1      14.916  -1.803 -16.928  1.00  0.00    -0.017 A 
HETATM   26  C   UNL     1      14.914  -3.282 -16.635  1.00  0.00     0.042 C 
HETATM   27  C   UNL     1      15.141  -0.920 -15.936  1.00  0.00     0.020 A 
HETATM   28  C   UNL     1      15.428  -3.678 -15.252  1.00  0.00     0.005 C 
HETATM   29  C   UNL     1      14.853  -2.740 -14.204  1.00  0.00     0.005 C 
HETATM   30  C   UNL     1      15.309  -1.313 -14.489  1.00  0.00     0.045 C 
HETATM   31  C   UNL     1      15.272   0.534 -16.210  1.00  0.00     0.268 A 
HETATM   32  O   UNL     1      15.532   1.308 -15.291  1.00  0.00    -0.266 OA
HETATM   33  N   UNL     1      15.111   0.918 -17.529  1.00  0.00    -0.261 N 
HETATM   34  C   UNL     1      15.288   2.311 -17.898  1.00  0.00     0.181 C 
HETATM   35  N   UNL     1      14.833   0.051 -18.557  1.00  0.00    -0.295 N 
HETATM   36  HN  UNL     1      14.709   0.402 -19.507  1.00  0.00     0.187 HD
ENDBRANCH   5  24
TORSDOF 5
ENDMDL
MODEL 3
REMARK VINA RESULT:      -8.0      2.905      4.940
REMARK  5 active torsions:
REMARK  status: ('A' for Active; 'I' for Inactive)
REMARK    1  A    between atoms: C_5  and  C_21 
REMARK    2  A    between atoms: C_7  and  S_8 
REMARK    3  A    between atoms: S_8  and  N_11 
REMARK    4  A    between atoms: N_11  and  C_12 
REMARK    5  A    between atoms: C_15  and  C_18 
REMARK       I    between atoms: C_18  and  N_20 
ROOT
HETATM    1  C   UNL     1      18.527  -6.902 -20.134  1.00  0.00     0.050 C 
HETATM    2  C   UNL     1      17.345  -6.013 -19.876  1.00  0.00    -0.039 C 
HETATM    3  C   UNL     1      17.552  -4.624 -19.812  1.00  0.00     0.009 C 
HETATM    4  C   UNL     1      16.506  -3.742 -19.501  1.00  0.00     0.014 C 
HETATM    5  C   UNL     1      15.203  -4.212 -19.295  1.00  0.00    -0.006 C 
HETATM    6  C   UNL     1      14.977  -5.574 -19.497  1.00  0.00     0.039 C 
HETATM    7  C   UNL     1      16.039  -6.483 -19.679  1.00  0.00     0.081 C 
ENDROOT
BRANCH   7   8
HETATM    8  S   UNL     1      15.611  -8.220 -19.603  1.00  0.00     0.246 S 
HETATM    9  O   UNL     1      14.164  -8.305 -19.624  1.00  0.00    -0.206 OA
HETATM   10  O   UNL     1      16.403  -8.993 -20.536  1.00  0.00    -0.206 OA
BRANCH   8  11
HETATM   11  N   UNL     1      16.057  -8.667 -18.023  1.00  0.00    -0.181 NA
HETATM   12  HN  UNL     1      17.032  -8.974 -18.030  1.00  0.00     0.146 HD
BRANCH  11  13
HETATM   13  C   UNL     1      15.687  -7.819 -16.939  1.00  0.00     0.022 A 
HETATM   14  C   UNL     1      14.365  -7.806 -16.502  1.00  0.00     0.025 A 
HETATM   15  C   UNL     1      13.988  -6.974 -15.443  1.00  0.00     0.019 A 
HETATM   16  C   UNL     1      14.926  -6.143 -14.811  1.00  0.00     0.031 A 
HETATM   17  C   UNL     1      16.256  -6.170 -15.252  1.00  0.00     0.019 A 
HETATM   18  C   UNL     1      16.633  -7.003 -16.317  1.00  0.00     0.025 A 
BRANCH  16  19
HETATM   19  C   UNL     1      14.441  -5.265 -13.704  1.00  0.00     0.249 C 
HETATM   20  O   UNL     1      15.225  -4.699 -12.951  1.00  0.00    -0.268 OA
HETATM   21  N   UNL     1      13.095  -5.105 -13.528  1.00  0.00    -0.366 N 
HETATM   22  HN1 UNL     1      12.374  -5.554 -14.067  1.00  0.00     0.159 HD
HETATM   23  HN2 UNL     1      12.808  -4.530 -12.746  1.00  0.00     0.159 HD
ENDBRANCH  16  19
ENDBRANCH  11  13
ENDBRANCH   8  11
ENDBRANCH   7   8
BRANCH   5  24
HETATM   24  C   UNL     1      14.143  -3.226 -18.839  1.00  0.00     0.065 A 
HETATM   25  C   UNL     1      14.192  -2.619 -17.458  1.00  0.00    -0.017 A 
HETATM   26  C   UNL     1      15.288  -2.900 -16.461  1.00  0.00     0.042 C 
HETATM   27  C   UNL     1      13.213  -1.746 -17.155  1.00  0.00     0.020 A 
HETATM   28  C   UNL     1      15.336  -1.962 -15.257  1.00  0.00     0.005 C 
HETATM   29  C   UNL     1      13.930  -1.733 -14.729  1.00  0.00     0.005 C 
HETATM   30  C   UNL     1      13.079  -1.074 -15.810  1.00  0.00     0.045 C 
HETATM   31  C   UNL     1      12.189  -1.353 -18.157  1.00  0.00     0.268 A 
HETATM   32  O   UNL     1      11.340  -0.512 -17.866  1.00  0.00    -0.266 OA
HETATM   33  N   UNL     1      12.286  -1.964 -19.393  1.00  0.00    -0.261 N 
HETATM   34  C   UNL     1      11.368  -1.591 -20.454  1.00  0.00     0.181 C 
HETATM   35  N   UNL     1      13.242  -2.894 -19.722  1.00  0.00    -0.295 N 
HETATM   36  HN  UNL     1      13.248  -3.321 -20.648  1.00  0.00     0.187 HD
ENDBRANCH   5  24
TORSDOF 5
ENDMDL
MODEL 4
REMARK VINA RESULT:      -7.9      2.851      6.897
REMARK  5 active torsions:
REMARK  status: ('A' for Active; 'I' for Inactive)
REMARK    1  A    between atoms: C_5  and  C_21 
REMARK    2  A    between atoms: C_7  and  S_8 
REMARK    3  A    between atoms: S_8  and  N_11 
REMARK    4  A    between atoms: N_11  and  C_12 
REMARK    5  A    between atoms: C_15  and  C_18 
REMARK       I    between atoms: C_18  and  N_20 
ROOT
HETATM    1  C   UNL     1      11.420   0.061 -17.912  1.00  0.00     0.050 C 
HETATM    2  C   UNL     1      12.180  -1.074 -18.535  1.00  0.00    -0.039 C 
HETATM    3  C   UNL     1      11.455  -2.150 -19.074  1.00  0.00     0.009 C 
HETATM    4  C   UNL     1      12.103  -3.276 -19.605  1.00  0.00     0.014 C 
HETATM    5  C   UNL     1      13.500  -3.345 -19.664  1.00  0.00    -0.006 C 
HETATM    6  C   UNL     1      14.210  -2.214 -19.256  1.00  0.00     0.039 C 
HETATM    7  C   UNL     1      13.578  -1.137 -18.603  1.00  0.00     0.081 C 
ENDROOT
BRANCH   7   8
HETATM    8  S   UNL     1      14.664   0.080 -17.861  1.00  0.00     0.246 S 
HETATM    9  O   UNL     1      16.023  -0.382 -18.060  1.00  0.00    -0.206 OA
HETATM   10  O   UNL     1      14.282   1.422 -18.247  1.00  0.00    -0.206 OA
BRANCH   8  11
HETATM   11  N   UNL     1      14.376  -0.100 -16.194  1.00  0.00    -0.181 NA
HETATM   12  HN  UNL     1      13.463   0.304 -15.971  1.00  0.00     0.146 HD
BRANCH  11  13
HETATM   13  C   UNL     1      14.660  -1.354 -15.579  1.00  0.00     0.022 A 
HETATM   14  C   UNL     1      15.949  -1.612 -15.118  1.00  0.00     0.025 A 
HETATM   15  C   UNL     1      16.243  -2.840 -14.518  1.00  0.00     0.019 A 
HETATM   16  C   UNL     1      15.254  -3.827 -14.375  1.00  0.00     0.031 A 
HETATM   17  C   UNL     1      13.959  -3.554 -14.833  1.00  0.00     0.019 A 
HETATM   18  C   UNL     1      13.665  -2.322 -15.438  1.00  0.00     0.025 A 
BRANCH  16  19
HETATM   19  C   UNL     1      15.652  -5.123 -13.746  1.00  0.00     0.249 C 
HETATM   20  O   UNL     1      16.550  -5.809 -14.220  1.00  0.00    -0.268 OA
HETATM   21  N   UNL     1      14.989  -5.548 -12.630  1.00  0.00    -0.366 N 
HETATM   22  HN1 UNL     1      14.216  -5.076 -12.190  1.00  0.00     0.159 HD
HETATM   23  HN2 UNL     1      15.266  -6.447 -12.256  1.00  0.00     0.159 HD
ENDBRANCH  16  19
ENDBRANCH  11  13
ENDBRANCH   8  11
ENDBRANCH   7   8
BRANCH   5  24
HETATM   24  C   UNL     1      14.142  -4.638 -20.131  1.00  0.00     0.065 A 
HETATM   25  C   UNL     1      14.178  -4.998 -21.596  1.00  0.00    -0.017 A 
HETATM   26  C   UNL     1      13.633  -4.114 -22.688  1.00  0.00     0.042 C 
HETATM   27  C   UNL     1      14.782  -6.161 -21.910  1.00  0.00     0.020 A 
HETATM   28  C   UNL     1      14.041  -4.497 -24.109  1.00  0.00     0.005 C 
HETATM   29  C   UNL     1      13.930  -6.002 -24.286  1.00  0.00     0.005 C 
HETATM   30  C   UNL     1      14.876  -6.702 -23.315  1.00  0.00     0.045 C 
HETATM   31  C   UNL     1      15.439  -6.996 -20.871  1.00  0.00     0.268 A 
HETATM   32  O   UNL     1      16.029  -8.024 -21.197  1.00  0.00    -0.266 OA
HETATM   33  N   UNL     1      15.356  -6.525 -19.574  1.00  0.00    -0.261 N 
HETATM   34  C   UNL     1      16.026  -7.243 -18.504  1.00  0.00     0.181 C 
HETATM   35  N   UNL     1      14.707  -5.369 -19.212  1.00  0.00    -0.295 N 
HETATM   36  HN  UNL     1      14.668  -5.086 -18.233  1.00  0.00     0.187 HD
ENDBRANCH   5  24
TORSDOF 5
ENDMDL
MODEL 5
REMARK VINA RESULT:      -7.9      3.311      5.725
REMARK  5 active torsions:
REMARK  status: ('A' for Active; 'I' for Inactive)
REMARK    1  A    between atoms: C_5  and  C_21 
REMARK    2  A    between atoms: C_7  and  S_8 
REMARK    3  A    between atoms: S_8  and  N_11 
REMARK    4  A    between atoms: N_11  and  C_12 
REMARK    5  A    between atoms: C_15  and  C_18 
REMARK       I    between atoms: C_18  and  N_20 
ROOT
HETATM    1  C   UNL     1      16.441  -5.310 -13.416  1.00  0.00     0.050 C 
HETATM    2  C   UNL     1      15.632  -4.795 -14.572  1.00  0.00    -0.039 C 
HETATM    3  C   UNL     1      14.315  -4.367 -14.330  1.00  0.00     0.009 C 
HETATM    4  C   UNL     1      13.479  -3.945 -15.375  1.00  0.00     0.014 C 
HETATM    5  C   UNL     1      13.946  -3.884 -16.693  1.00  0.00    -0.006 C 
HETATM    6  C   UNL     1      15.295  -4.176 -16.905  1.00  0.00     0.039 C 
HETATM    7  C   UNL     1      16.103  -4.725 -15.889  1.00  0.00     0.081 C 
ENDROOT
BRANCH   7   8
HETATM    8  S   UNL     1      17.706  -5.339 -16.403  1.00  0.00     0.246 S 
HETATM    9  O   UNL     1      17.775  -5.198 -17.845  1.00  0.00    -0.206 OA
HETATM   10  O   UNL     1      18.760  -4.808 -15.565  1.00  0.00    -0.206 OA
BRANCH   8  11
HETATM   11  N   UNL     1      17.593  -7.013 -16.128  1.00  0.00    -0.181 NA
HETATM   12  HN  UNL     1      17.699  -7.191 -15.126  1.00  0.00     0.146 HD
BRANCH  11  13
HETATM   13  C   UNL     1      16.559  -7.749 -16.776  1.00  0.00     0.022 A 
HETATM   14  C   UNL     1      16.772  -8.237 -18.062  1.00  0.00     0.025 A 
HETATM   15  C   UNL     1      15.762  -8.956 -18.712  1.00  0.00     0.019 A 
HETATM   16  C   UNL     1      14.528  -9.190 -18.086  1.00  0.00     0.031 A 
HETATM   17  C   UNL     1      14.328  -8.702 -16.788  1.00  0.00     0.019 A 
HETATM   18  C   UNL     1      15.339  -7.979 -16.138  1.00  0.00     0.025 A 
BRANCH  16  19
HETATM   19  C   UNL     1      13.492  -9.943 -18.855  1.00  0.00     0.249 C 
HETATM   20  O   UNL     1      13.290  -9.715 -20.042  1.00  0.00    -0.268 OA
HETATM   21  N   UNL     1      12.751 -10.894 -18.211  1.00  0.00    -0.366 N 
HETATM   22  HN1 UNL     1      12.814 -11.126 -17.234  1.00  0.00     0.159 HD
HETATM   23  HN2 UNL     1      12.036 -11.356 -18.758  1.00  0.00     0.159 HD
ENDBRANCH  16  19
ENDBRANCH  11  13
ENDBRANCH   8  11
ENDBRANCH   7   8
BRANCH   5  24
HETATM   24  C   UNL     1      12.961  -3.541 -17.795  1.00  0.00     0.065 A 
HETATM   25  C   UNL     1      12.210  -4.626 -18.528  1.00  0.00    -0.017 A 
HETATM   26  C   UNL     1      12.342  -6.094 -18.210  1.00  0.00     0.042 C 
HETATM   27  C   UNL     1      11.350  -4.218 -19.480  1.00  0.00     0.020 A 
HETATM   28  C   UNL     1      11.280  -6.998 -18.833  1.00  0.00     0.005 C 
HETATM   29  C   UNL     1      11.052  -6.598 -20.281  1.00  0.00     0.005 C 
HETATM   30  C   UNL     1      10.545  -5.161 -20.341  1.00  0.00     0.045 C 
HETATM   31  C   UNL     1      11.105  -2.774 -19.734  1.00  0.00     0.268 A 
HETATM   32  O   UNL     1      10.272  -2.434 -20.572  1.00  0.00    -0.266 OA
HETATM   33  N   UNL     1      11.839  -1.891 -18.963  1.00  0.00    -0.261 N 
HETATM   34  C   UNL     1      11.616  -0.463 -19.098  1.00  0.00     0.181 C 
HETATM   35  N   UNL     1      12.760  -2.273 -18.018  1.00  0.00    -0.295 N 
HETATM   36  HN  UNL     1      13.281  -1.570 -17.495  1.00  0.00     0.187 HD
ENDBRANCH   5  24
TORSDOF 5
ENDMDL
MODEL 6
REMARK VINA RESULT:      -7.9      2.778      6.343
REMARK  5 active torsions:
REMARK  status: ('A' for Active; 'I' for Inactive)
REMARK    1  A    between atoms: C_5  and  C_21 
REMARK    2  A    between atoms: C_7  and  S_8 
REMARK    3  A    between atoms: S_8  and  N_11 
REMARK    4  A    between atoms: N_11  and  C_12 
REMARK    5  A    between atoms: C_15  and  C_18 
REMARK       I    between atoms: C_18  and  N_20 
ROOT
HETATM    1  C   UNL     1      11.532   0.230 -18.105  1.00  0.00     0.050 C 
HETATM    2  C   UNL     1      12.274  -1.018 -18.489  1.00  0.00    -0.039 C 
HETATM    3  C   UNL     1      11.535  -2.122 -18.947  1.00  0.00     0.009 C 
HETATM    4  C   UNL     1      12.157  -3.342 -19.252  1.00  0.00     0.014 C 
HETATM    5  C   UNL     1      13.547  -3.488 -19.160  1.00  0.00    -0.006 C 
HETATM    6  C   UNL     1      14.286  -2.348 -18.840  1.00  0.00     0.039 C 
HETATM    7  C   UNL     1      13.666  -1.159 -18.406  1.00  0.00     0.081 C 
ENDROOT
BRANCH   7   8
HETATM    8  S   UNL     1      14.752   0.095 -17.730  1.00  0.00     0.246 S 
HETATM    9  O   UNL     1      16.113  -0.361 -17.938  1.00  0.00    -0.206 OA
HETATM   10  O   UNL     1      14.350   1.418 -18.158  1.00  0.00    -0.206 OA
BRANCH   8  11
HETATM   11  N   UNL     1      14.497  -0.027 -16.053  1.00  0.00    -0.181 NA
HETATM   12  HN  UNL     1      13.598   0.405 -15.823  1.00  0.00     0.146 HD
BRANCH  11  13
HETATM   13  C   UNL     1      14.768  -1.266 -15.404  1.00  0.00     0.022 A 
HETATM   14  C   UNL     1      16.088  -1.642 -15.173  1.00  0.00     0.025 A 
HETATM   15  C   UNL     1      16.368  -2.859 -14.542  1.00  0.00     0.019 A 
HETATM   16  C   UNL     1      15.331  -3.716 -14.140  1.00  0.00     0.031 A 
HETATM   17  C   UNL     1      14.006  -3.324 -14.368  1.00  0.00     0.019 A 
HETATM   18  C   UNL     1      13.726  -2.105 -15.004  1.00  0.00     0.025 A 
BRANCH  16  19
HETATM   19  C   UNL     1      15.711  -5.010 -13.496  1.00  0.00     0.249 C 
HETATM   20  O   UNL     1      16.784  -5.550 -13.738  1.00  0.00    -0.268 OA
HETATM   21  N   UNL     1      14.833  -5.601 -12.630  1.00  0.00    -0.366 N 
HETATM   22  HN1 UNL     1      13.917  -5.257 -12.396  1.00  0.00     0.159 HD
HETATM   23  HN2 UNL     1      15.114  -6.493 -12.242  1.00  0.00     0.159 HD
ENDBRANCH  16  19
ENDBRANCH  11  13
ENDBRANCH   8  11
ENDBRANCH   7   8
BRANCH   5  24
HETATM   24  C   UNL     1      14.146  -4.864 -19.381  1.00  0.00     0.065 A 
HETATM   25  C   UNL     1      14.266  -5.848 -18.243  1.00  0.00    -0.017 A 
HETATM   26  C   UNL     1      13.778  -5.570 -16.844  1.00  0.00     0.042 C 
HETATM   27  C   UNL     1      14.800  -7.047 -18.544  1.00  0.00     0.020 A 
HETATM   28  C   UNL     1      13.698  -6.786 -15.922  1.00  0.00     0.005 C 
HETATM   29  C   UNL     1      14.945  -7.638 -16.089  1.00  0.00     0.005 C 
HETATM   30  C   UNL     1      15.035  -8.137 -17.528  1.00  0.00     0.045 C 
HETATM   31  C   UNL     1      15.177  -7.398 -19.938  1.00  0.00     0.268 A 
HETATM   32  O   UNL     1      15.611  -8.520 -20.189  1.00  0.00    -0.266 OA
HETATM   33  N   UNL     1      14.981  -6.409 -20.885  1.00  0.00    -0.261 N 
HETATM   34  C   UNL     1      15.260  -6.688 -22.282  1.00  0.00     0.181 C 
HETATM   35  N   UNL     1      14.484  -5.160 -20.605  1.00  0.00    -0.295 N 
HETATM   36  HN  UNL     1      14.379  -4.469 -21.348  1.00  0.00     0.187 HD
ENDBRANCH   5  24
TORSDOF 5
ENDMDL
MODEL 7
REMARK VINA RESULT:      -7.8     10.383     13.156
REMARK  5 active torsions:
REMARK  status: ('A' for Active; 'I' for Inactive)
REMARK    1  A    between atoms: C_5  and  C_21 
REMARK    2  A    between atoms: C_7  and  S_8 
REMARK    3  A    between atoms: S_8  and  N_11 
REMARK    4  A    between atoms: N_11  and  C_12 
REMARK    5  A    between atoms: C_15  and  C_18 
REMARK       I    between atoms: C_18  and  N_20 
ROOT
HETATM    1  C   UNL     1      16.953  -5.269 -33.692  1.00  0.00     0.050 C 
HETATM    2  C   UNL     1      16.500  -5.841 -32.380  1.00  0.00    -0.039 C 
HETATM    3  C   UNL     1      16.848  -5.164 -31.198  1.00  0.00     0.009 C 
HETATM    4  C   UNL     1      16.521  -5.683 -29.936  1.00  0.00     0.014 C 
HETATM    5  C   UNL     1      15.789  -6.870 -29.809  1.00  0.00    -0.006 C 
HETATM    6  C   UNL     1      15.328  -7.461 -30.987  1.00  0.00     0.039 C 
HETATM    7  C   UNL     1      15.759  -7.024 -32.255  1.00  0.00     0.081 C 
ENDROOT
BRANCH   7   8
HETATM    8  S   UNL     1      15.335  -8.080 -33.638  1.00  0.00     0.246 S 
HETATM    9  O   UNL     1      14.382  -7.353 -34.454  1.00  0.00    -0.206 OA
HETATM   10  O   UNL     1      16.520  -8.657 -34.236  1.00  0.00    -0.206 OA
BRANCH   8  11
HETATM   11  N   UNL     1      14.435  -9.330 -32.917  1.00  0.00    -0.181 NA
HETATM   12  HN  UNL     1      13.476  -9.292 -33.269  1.00  0.00     0.146 HD
BRANCH  11  13
HETATM   13  C   UNL     1      15.009 -10.632 -32.837  1.00  0.00     0.022 A 
HETATM   14  C   UNL     1      14.942 -11.478 -33.941  1.00  0.00     0.025 A 
HETATM   15  C   UNL     1      15.495 -12.760 -33.873  1.00  0.00     0.019 A 
HETATM   16  C   UNL     1      16.119 -13.214 -32.700  1.00  0.00     0.031 A 
HETATM   17  C   UNL     1      16.190 -12.352 -31.598  1.00  0.00     0.019 A 
HETATM   18  C   UNL     1      15.631 -11.067 -31.666  1.00  0.00     0.025 A 
BRANCH  16  19
HETATM   19  C   UNL     1      16.664 -14.605 -32.698  1.00  0.00     0.249 C 
HETATM   20  O   UNL     1      16.069 -15.522 -33.251  1.00  0.00    -0.268 OA
HETATM   21  N   UNL     1      17.843 -14.853 -32.052  1.00  0.00    -0.366 N 
HETATM   22  HN1 UNL     1      18.385 -14.178 -31.539  1.00  0.00     0.159 HD
HETATM   23  HN2 UNL     1      18.160 -15.814 -32.045  1.00  0.00     0.159 HD
ENDBRANCH  16  19
ENDBRANCH  11  13
ENDBRANCH   8  11
ENDBRANCH   7   8
BRANCH   5  24
HETATM   24  C   UNL     1      15.576  -7.444 -28.421  1.00  0.00     0.065 A 
HETATM   25  C   UNL     1      14.900  -6.633 -27.343  1.00  0.00    -0.017 A 
HETATM   26  C   UNL     1      14.359  -5.242 -27.559  1.00  0.00     0.042 C 
HETATM   27  C   UNL     1      14.746  -7.237 -26.149  1.00  0.00     0.020 A 
HETATM   28  C   UNL     1      13.440  -4.717 -26.458  1.00  0.00     0.005 C 
HETATM   29  C   UNL     1      14.026  -5.053 -25.098  1.00  0.00     0.005 C 
HETATM   30  C   UNL     1      14.131  -6.567 -24.946  1.00  0.00     0.045 C 
HETATM   31  C   UNL     1      15.156  -8.650 -25.939  1.00  0.00     0.268 A 
HETATM   32  O   UNL     1      14.952  -9.190 -24.853  1.00  0.00    -0.266 OA
HETATM   33  N   UNL     1      15.732  -9.281 -27.026  1.00  0.00    -0.261 N 
HETATM   34  C   UNL     1      16.102 -10.682 -26.930  1.00  0.00     0.181 C 
HETATM   35  N   UNL     1      15.947  -8.681 -28.243  1.00  0.00    -0.295 N 
HETATM   36  HN  UNL     1      16.394  -9.198 -29.000  1.00  0.00     0.187 HD
ENDBRANCH   5  24
TORSDOF 5
ENDMDL
MODEL 8
REMARK VINA RESULT:      -7.8      3.607      6.377
REMARK  5 active torsions:
REMARK  status: ('A' for Active; 'I' for Inactive)
REMARK    1  A    between atoms: C_5  and  C_21 
REMARK    2  A    between atoms: C_7  and  S_8 
REMARK    3  A    between atoms: S_8  and  N_11 
REMARK    4  A    between atoms: N_11  and  C_12 
REMARK    5  A    between atoms: C_15  and  C_18 
REMARK       I    between atoms: C_18  and  N_20 
ROOT
HETATM    1  C   UNL     1      18.008  -5.232 -16.301  1.00  0.00     0.050 C 
HETATM    2  C   UNL     1      16.948  -5.041 -17.348  1.00  0.00    -0.039 C 
HETATM    3  C   UNL     1      17.316  -4.467 -18.577  1.00  0.00     0.009 C 
HETATM    4  C   UNL     1      16.364  -4.192 -19.570  1.00  0.00     0.014 C 
HETATM    5  C   UNL     1      15.017  -4.530 -19.392  1.00  0.00    -0.006 C 
HETATM    6  C   UNL     1      14.683  -5.227 -18.229  1.00  0.00     0.039 C 
HETATM    7  C   UNL     1      15.602  -5.390 -17.173  1.00  0.00     0.081 C 
ENDROOT
BRANCH   7   8
HETATM    8  S   UNL     1      14.931  -6.017 -15.635  1.00  0.00     0.246 S 
HETATM    9  O   UNL     1      15.656  -5.372 -14.558  1.00  0.00    -0.206 OA
HETATM   10  O   UNL     1      13.484  -6.002 -15.655  1.00  0.00    -0.206 OA
BRANCH   8  11
HETATM   11  N   UNL     1      15.451  -7.636 -15.610  1.00  0.00    -0.181 NA
HETATM   12  HN  UNL     1      15.028  -8.106 -14.807  1.00  0.00     0.146 HD
BRANCH  11  13
HETATM   13  C   UNL     1      15.450  -8.377 -16.827  1.00  0.00     0.022 A 
HETATM   14  C   UNL     1      14.241  -8.826 -17.353  1.00  0.00     0.025 A 
HETATM   15  C   UNL     1      14.227  -9.560 -18.544  1.00  0.00     0.019 A 
HETATM   16  C   UNL     1      15.421  -9.858 -19.220  1.00  0.00     0.031 A 
HETATM   17  C   UNL     1      16.631  -9.394 -18.687  1.00  0.00     0.019 A 
HETATM   18  C   UNL     1      16.644  -8.661 -17.491  1.00  0.00     0.025 A 
BRANCH  16  19
HETATM   19  C   UNL     1      15.325 -10.668 -20.472  1.00  0.00     0.249 C 
HETATM   20  O   UNL     1      14.859 -10.194 -21.502  1.00  0.00    -0.268 OA
HETATM   21  N   UNL     1      15.757 -11.964 -20.456  1.00  0.00    -0.366 N 
HETATM   22  HN1 UNL     1      16.119 -12.454 -19.654  1.00  0.00     0.159 HD
HETATM   23  HN2 UNL     1      15.643 -12.489 -21.314  1.00  0.00     0.159 HD
ENDBRANCH  16  19
ENDBRANCH  11  13
ENDBRANCH   8  11
ENDBRANCH   7   8
BRANCH   5  24
HETATM   24  C   UNL     1      14.016  -4.095 -20.447  1.00  0.00     0.065 A 
HETATM   25  C   UNL     1      13.970  -4.770 -21.795  1.00  0.00    -0.017 A 
HETATM   26  C   UNL     1      14.858  -5.926 -22.182  1.00  0.00     0.042 C 
HETATM   27  C   UNL     1      13.037  -4.320 -22.657  1.00  0.00     0.020 A 
HETATM   28  C   UNL     1      14.451  -6.671 -23.452  1.00  0.00     0.005 C 
HETATM   29  C   UNL     1      14.066  -5.672 -24.531  1.00  0.00     0.005 C 
HETATM   30  C   UNL     1      12.872  -4.847 -24.061  1.00  0.00     0.045 C 
HETATM   31  C   UNL     1      12.065  -3.268 -22.264  1.00  0.00     0.268 A 
HETATM   32  O   UNL     1      11.191  -2.917 -23.054  1.00  0.00    -0.266 OA
HETATM   33  N   UNL     1      12.205  -2.763 -20.984  1.00  0.00    -0.261 N 
HETATM   34  C   UNL     1      11.257  -1.778 -20.493  1.00  0.00     0.181 C 
HETATM   35  N   UNL     1      13.173  -3.164 -20.097  1.00  0.00    -0.295 N 
HETATM   36  HN  UNL     1      13.232  -2.738 -19.172  1.00  0.00     0.187 HD
ENDBRANCH   5  24
TORSDOF 5
ENDMDL
MODEL 9
REMARK VINA RESULT:      -7.8      3.683      4.918
REMARK  5 active torsions:
REMARK  status: ('A' for Active; 'I' for Inactive)
REMARK    1  A    between atoms: C_5  and  C_21 
REMARK    2  A    between atoms: C_7  and  S_8 
REMARK    3  A    between atoms: S_8  and  N_11 
REMARK    4  A    between atoms: N_11  and  C_12 
REMARK    5  A    between atoms: C_15  and  C_18 
REMARK       I    between atoms: C_18  and  N_20 
ROOT
HETATM    1  C   UNL     1      13.793  -4.260 -23.520  1.00  0.00     0.050 C 
HETATM    2  C   UNL     1      13.770  -3.734 -22.114  1.00  0.00    -0.039 C 
HETATM    3  C   UNL     1      14.985  -3.639 -21.415  1.00  0.00     0.009 C 
HETATM    4  C   UNL     1      15.028  -3.227 -20.074  1.00  0.00     0.014 C 
HETATM    5  C   UNL     1      13.862  -2.845 -19.399  1.00  0.00    -0.006 C 
HETATM    6  C   UNL     1      12.680  -2.808 -20.141  1.00  0.00     0.039 C 
HETATM    7  C   UNL     1      12.604  -3.342 -21.443  1.00  0.00     0.081 C 
ENDROOT
BRANCH   7   8
HETATM    8  S   UNL     1      10.959  -3.509 -22.131  1.00  0.00     0.246 S 
HETATM    9  O   UNL     1      10.020  -3.162 -21.082  1.00  0.00    -0.206 OA
HETATM   10  O   UNL     1      10.871  -2.878 -23.430  1.00  0.00    -0.206 OA
BRANCH   8  11
HETATM   11  N   UNL     1      10.788  -5.189 -22.338  1.00  0.00    -0.181 NA
HETATM   12  HN  UNL     1      11.689  -5.579 -22.628  1.00  0.00     0.146 HD
BRANCH  11  13
HETATM   13  C   UNL     1      10.084  -5.936 -21.350  1.00  0.00     0.022 A 
HETATM   14  C   UNL     1       8.767  -6.317 -21.593  1.00  0.00     0.025 A 
HETATM   15  C   UNL     1       8.062  -7.046 -20.629  1.00  0.00     0.019 A 
HETATM   16  C   UNL     1       8.663  -7.397 -19.410  1.00  0.00     0.031 A 
HETATM   17  C   UNL     1       9.992  -7.017 -19.180  1.00  0.00     0.019 A 
HETATM   18  C   UNL     1      10.697  -6.284 -20.146  1.00  0.00     0.025 A 
BRANCH  16  19
HETATM   19  C   UNL     1       7.837  -8.154 -18.421  1.00  0.00     0.249 C 
HETATM   20  O   UNL     1       8.206  -9.237 -17.981  1.00  0.00    -0.268 OA
HETATM   21  N   UNL     1       6.644  -7.626 -18.014  1.00  0.00    -0.366 N 
HETATM   22  HN1 UNL     1       6.239  -6.766 -18.344  1.00  0.00     0.159 HD
HETATM   23  HN2 UNL     1       6.099  -8.186 -17.370  1.00  0.00     0.159 HD
ENDBRANCH  16  19
ENDBRANCH  11  13
ENDBRANCH   8  11
ENDBRANCH   7   8
BRANCH   5  24
HETATM   24  C   UNL     1      13.954  -2.530 -17.917  1.00  0.00     0.065 A 
HETATM   25  C   UNL     1      13.702  -3.599 -16.882  1.00  0.00    -0.017 A 
HETATM   26  C   UNL     1      13.388  -5.034 -17.222  1.00  0.00     0.042 C 
HETATM   27  C   UNL     1      13.821  -3.223 -15.595  1.00  0.00     0.020 A 
HETATM   28  C   UNL     1      13.478  -6.020 -16.059  1.00  0.00     0.005 C 
HETATM   29  C   UNL     1      12.827  -5.417 -14.825  1.00  0.00     0.005 C 
HETATM   30  C   UNL     1      13.566  -4.144 -14.427  1.00  0.00     0.045 C 
HETATM   31  C   UNL     1      14.250  -1.849 -15.227  1.00  0.00     0.268 A 
HETATM   32  O   UNL     1      14.402  -1.552 -14.043  1.00  0.00    -0.266 OA
HETATM   33  N   UNL     1      14.480  -0.984 -16.281  1.00  0.00    -0.261 N 
HETATM   34  C   UNL     1      14.966   0.359 -16.017  1.00  0.00     0.181 C 
HETATM   35  N   UNL     1      14.322  -1.319 -17.604  1.00  0.00    -0.295 N 
HETATM   36  HN  UNL     1      14.491  -0.628 -18.334  1.00  0.00     0.187 HD
ENDBRANCH   5  24
TORSDOF 5
ENDMDL
