MODEL 1
REMARK VINA RESULT:      -8.0      0.000      0.000
REMARK  5 active torsions:
REMARK  status: ('A' for Active; 'I' for Inactive)
REMARK    1  A    between atoms: C_2  and  C_3 
REMARK    2  A    between atoms: C_6  and  C_21 
REMARK    3  A    between atoms: C_8  and  S_9 
REMARK    4  A    between atoms: S_9  and  N_12 
REMARK    5  A    between atoms: C_15  and  C_18 
REMARK       I    between atoms: C_18  and  N_20 
ROOT
HETATM    1  C   UNL     1      11.191   0.776 -18.327  1.00  0.00     0.010 C 
HETATM    2  C   UNL     1      11.535  -0.630 -17.854  1.00  0.00     0.035 C 
ENDROOT
BRANCH   2   3
HETATM    3  C   UNL     1      12.222  -1.410 -18.946  1.00  0.00    -0.035 C 
HETATM    4  C   UNL     1      11.428  -1.826 -20.034  1.00  0.00     0.009 C 
HETATM    5  C   UNL     1      11.921  -2.706 -21.004  1.00  0.00     0.014 C 
HETATM    6  C   UNL     1      13.243  -3.162 -20.938  1.00  0.00    -0.006 C 
HETATM    7  C   UNL     1      14.078  -2.615 -19.968  1.00  0.00     0.039 C 
HETATM    8  C   UNL     1      13.573  -1.806 -18.934  1.00  0.00     0.086 C 
BRANCH   6   9
HETATM    9  C   UNL     1      13.688  -4.225 -21.898  1.00  0.00     0.065 A 
HETATM   10  C   UNL     1      14.369  -5.466 -21.386  1.00  0.00    -0.017 A 
HETATM   11  C   UNL     1      14.605  -5.740 -19.920  1.00  0.00     0.042 C 
HETATM   12  C   UNL     1      14.731  -6.366 -22.319  1.00  0.00     0.020 A 
HETATM   13  C   UNL     1      14.992  -7.182 -19.590  1.00  0.00     0.005 C 
HETATM   14  C   UNL     1      16.035  -7.674 -20.581  1.00  0.00     0.005 C 
HETATM   15  C   UNL     1      15.464  -7.646 -21.998  1.00  0.00     0.045 C 
HETATM   16  C   UNL     1      14.420  -6.152 -23.758  1.00  0.00     0.268 A 
HETATM   17  O   UNL     1      14.733  -7.007 -24.585  1.00  0.00    -0.266 OA
HETATM   18  N   UNL     1      13.771  -4.970 -24.071  1.00  0.00    -0.261 N 
HETATM   19  C   UNL     1      13.431  -4.666 -25.449  1.00  0.00     0.181 C 
HETATM   20  N   UNL     1      13.411  -4.021 -23.151  1.00  0.00    -0.295 N 
HETATM   21  HN  UNL     1      12.934  -3.168 -23.446  1.00  0.00     0.187 HD
ENDBRANCH   6   9
BRANCH   8  22
HETATM   22  S   UNL     1      14.728  -1.519 -17.588  1.00  0.00     0.261 S 
HETATM   23  O   UNL     1      15.994  -2.158 -17.866  1.00  0.00    -0.200 OA
HETATM   24  O   UNL     1      14.687  -0.095 -17.316  1.00  0.00    -0.200 OA
BRANCH  22  25
HETATM   25  N   UNL     1      13.981  -2.324 -16.293  1.00  0.00    -0.307 N 
HETATM   26  C   UNL     1      13.984  -3.806 -16.298  1.00  0.00     0.136 C 
HETATM   27  C   UNL     1      15.269  -4.361 -15.678  1.00  0.00     0.034 C 
HETATM   28  C   UNL     1      15.547  -3.780 -14.285  1.00  0.00     0.081 C 
HETATM   29  C   UNL     1      15.479  -2.249 -14.322  1.00  0.00     0.034 C 
HETATM   30  C   UNL     1      14.176  -1.758 -14.938  1.00  0.00     0.136 C 
BRANCH  28  31
HETATM   31  C   UNL     1      14.602  -4.374 -13.245  1.00  0.00     0.219 C 
HETATM   32  O   UNL     1      13.539  -3.866 -12.909  1.00  0.00    -0.273 OA
HETATM   33  N   UNL     1      14.998  -5.556 -12.694  1.00  0.00    -0.370 N 
HETATM   34  HN1 UNL     1      15.722  -6.129 -13.104  1.00  0.00     0.159 HD
HETATM   35  HN2 UNL     1      14.340  -6.004 -12.068  1.00  0.00     0.159 HD
ENDBRANCH  28  31
ENDBRANCH  22  25
ENDBRANCH   8  22
ENDBRANCH   2   3
TORSDOF 5
ENDMDL
MODEL 2
REMARK VINA RESULT:      -7.9      3.138      4.705
REMARK  5 active torsions:
REMARK  status: ('A' for Active; 'I' for Inactive)
REMARK    1  A    between atoms: C_2  and  C_3 
REMARK    2  A    between atoms: C_6  and  C_21 
REMARK    3  A    between atoms: C_8  and  S_9 
REMARK    4  A    between atoms: S_9  and  N_12 
REMARK    5  A    between atoms: C_15  and  C_18 
REMARK       I    between atoms: C_18  and  N_20 
ROOT
HETATM    1  C   UNL     1      15.223  -0.679 -14.705  1.00  0.00     0.010 C 
HETATM    2  C   UNL     1      13.897  -1.427 -14.702  1.00  0.00     0.035 C 
ENDROOT
BRANCH   2   3
HETATM    3  C   UNL     1      13.520  -1.857 -16.097  1.00  0.00    -0.035 C 
HETATM    4  C   UNL     1      12.913  -0.890 -16.924  1.00  0.00     0.009 C 
HETATM    5  C   UNL     1      12.361  -1.231 -18.164  1.00  0.00     0.014 C 
HETATM    6  C   UNL     1      12.442  -2.547 -18.634  1.00  0.00    -0.006 C 
HETATM    7  C   UNL     1      13.194  -3.461 -17.903  1.00  0.00     0.039 C 
HETATM    8  C   UNL     1      13.671  -3.157 -16.615  1.00  0.00     0.086 C 
BRANCH   6   9
HETATM    9  C   UNL     1      11.703  -2.911 -19.888  1.00  0.00     0.065 A 
HETATM   10  C   UNL     1      12.454  -3.449 -21.077  1.00  0.00    -0.017 A 
HETATM   11  C   UNL     1      13.945  -3.692 -21.077  1.00  0.00     0.042 C 
HETATM   12  C   UNL     1      11.709  -3.752 -22.156  1.00  0.00     0.020 A 
HETATM   13  C   UNL     1      14.455  -4.548 -22.237  1.00  0.00     0.005 C 
HETATM   14  C   UNL     1      13.809  -4.091 -23.537  1.00  0.00     0.005 C 
HETATM   15  C   UNL     1      12.293  -4.258 -23.453  1.00  0.00     0.045 C 
HETATM   16  C   UNL     1      10.228  -3.607 -22.136  1.00  0.00     0.268 A 
HETATM   17  O   UNL     1       9.570  -3.922 -23.126  1.00  0.00    -0.266 OA
HETATM   18  N   UNL     1       9.681  -3.118 -20.962  1.00  0.00    -0.261 N 
HETATM   19  C   UNL     1       8.246  -2.933 -20.847  1.00  0.00     0.181 C 
HETATM   20  N   UNL     1      10.411  -2.776 -19.855  1.00  0.00    -0.295 N 
HETATM   21  HN  UNL     1       9.947  -2.421 -19.018  1.00  0.00     0.187 HD
ENDBRANCH   6   9
BRANCH   8  22
HETATM   22  S   UNL     1      14.277  -4.577 -15.697  1.00  0.00     0.261 S 
HETATM   23  O   UNL     1      15.489  -4.239 -14.988  1.00  0.00    -0.200 OA
HETATM   24  O   UNL     1      13.140  -5.102 -14.964  1.00  0.00    -0.200 OA
BRANCH  22  25
HETATM   25  N   UNL     1      14.655  -5.675 -16.936  1.00  0.00    -0.307 N 
HETATM   26  C   UNL     1      16.072  -5.793 -17.354  1.00  0.00     0.136 C 
HETATM   27  C   UNL     1      16.830  -6.789 -16.474  1.00  0.00     0.034 C 
HETATM   28  C   UNL     1      16.130  -8.152 -16.391  1.00  0.00     0.081 C 
HETATM   29  C   UNL     1      14.656  -7.972 -16.009  1.00  0.00     0.034 C 
HETATM   30  C   UNL     1      13.954  -6.980 -16.926  1.00  0.00     0.136 C 
BRANCH  28  31
HETATM   31  C   UNL     1      16.297  -8.933 -17.691  1.00  0.00     0.219 C 
HETATM   32  O   UNL     1      15.408  -9.592 -18.218  1.00  0.00    -0.273 OA
HETATM   33  N   UNL     1      17.524  -8.849 -18.277  1.00  0.00    -0.370 N 
HETATM   34  HN1 UNL     1      18.197  -8.139 -18.025  1.00  0.00     0.159 HD
HETATM   35  HN2 UNL     1      17.621  -9.291 -19.183  1.00  0.00     0.159 HD
ENDBRANCH  28  31
ENDBRANCH  22  25
ENDBRANCH   8  22
ENDBRANCH   2   3
TORSDOF 5
ENDMDL
MODEL 3
REMARK VINA RESULT:      -7.8      1.227      1.356
REMARK  5 active torsions:
REMARK  status: ('A' for Active; 'I' for Inactive)
REMARK    1  A    between atoms: C_2  and  C_3 
REMARK    2  A    between atoms: C_6  and  C_21 
REMARK    3  A    between atoms: C_8  and  S_9 
REMARK    4  A    between atoms: S_9  and  N_12 
REMARK    5  A    between atoms: C_15  and  C_18 
REMARK       I    between atoms: C_18  and  N_20 
ROOT
HETATM    1  C   UNL     1      11.468   0.163 -18.879  1.00  0.00     0.010 C 
HETATM    2  C   UNL     1      11.591  -1.321 -18.561  1.00  0.00     0.035 C 
ENDROOT
BRANCH   2   3
HETATM    3  C   UNL     1      12.273  -2.056 -19.687  1.00  0.00    -0.035 C 
HETATM    4  C   UNL     1      11.484  -2.385 -20.809  1.00  0.00     0.009 C 
HETATM    5  C   UNL     1      11.966  -3.222 -21.821  1.00  0.00     0.014 C 
HETATM    6  C   UNL     1      13.273  -3.718 -21.764  1.00  0.00    -0.006 C 
HETATM    7  C   UNL     1      14.109  -3.253 -20.753  1.00  0.00     0.039 C 
HETATM    8  C   UNL     1      13.612  -2.491 -19.681  1.00  0.00     0.086 C 
BRANCH   6   9
HETATM    9  C   UNL     1      13.703  -4.736 -22.779  1.00  0.00     0.065 A 
HETATM   10  C   UNL     1      14.132  -6.109 -22.335  1.00  0.00    -0.017 A 
HETATM   11  C   UNL     1      14.118  -6.558 -20.893  1.00  0.00     0.042 C 
HETATM   12  C   UNL     1      14.497  -6.956 -23.314  1.00  0.00     0.020 A 
HETATM   13  C   UNL     1      14.257  -8.067 -20.690  1.00  0.00     0.005 C 
HETATM   14  C   UNL     1      15.355  -8.609 -21.592  1.00  0.00     0.005 C 
HETATM   15  C   UNL     1      14.999  -8.357 -23.056  1.00  0.00     0.045 C 
HETATM   16  C   UNL     1      14.425  -6.558 -24.746  1.00  0.00     0.268 A 
HETATM   17  O   UNL     1      14.734  -7.365 -25.621  1.00  0.00    -0.266 OA
HETATM   18  N   UNL     1      13.992  -5.267 -24.997  1.00  0.00    -0.261 N 
HETATM   19  C   UNL     1      13.894  -4.782 -26.361  1.00  0.00     0.181 C 
HETATM   20  N   UNL     1      13.636  -4.371 -24.025  1.00  0.00    -0.295 N 
HETATM   21  HN  UNL     1      13.324  -3.432 -24.275  1.00  0.00     0.187 HD
ENDBRANCH   6   9
BRANCH   8  22
HETATM   22  S   UNL     1      14.753  -2.316 -18.305  1.00  0.00     0.261 S 
HETATM   23  O   UNL     1      16.033  -2.901 -18.635  1.00  0.00    -0.200 OA
HETATM   24  O   UNL     1      14.684  -0.927 -17.895  1.00  0.00    -0.200 OA
BRANCH  22  25
HETATM   25  N   UNL     1      14.014  -3.258 -17.100  1.00  0.00    -0.307 N 
HETATM   26  C   UNL     1      13.843  -4.708 -17.356  1.00  0.00     0.136 C 
HETATM   27  C   UNL     1      15.095  -5.493 -16.963  1.00  0.00     0.034 C 
HETATM   28  C   UNL     1      15.543  -5.203 -15.524  1.00  0.00     0.081 C 
HETATM   29  C   UNL     1      15.653  -3.691 -15.295  1.00  0.00     0.034 C 
HETATM   30  C   UNL     1      14.375  -2.966 -15.694  1.00  0.00     0.136 C 
BRANCH  28  31
HETATM   31  C   UNL     1      14.614  -5.873 -14.515  1.00  0.00     0.219 C 
HETATM   32  O   UNL     1      13.643  -6.554 -14.820  1.00  0.00    -0.273 OA
HETATM   33  N   UNL     1      14.936  -5.688 -13.204  1.00  0.00    -0.370 N 
HETATM   34  HN1 UNL     1      15.843  -5.354 -12.910  1.00  0.00     0.159 HD
HETATM   35  HN2 UNL     1      14.380  -6.198 -12.528  1.00  0.00     0.159 HD
ENDBRANCH  28  31
ENDBRANCH  22  25
ENDBRANCH   8  22
ENDBRANCH   2   3
TORSDOF 5
ENDMDL
MODEL 4
REMARK VINA RESULT:      -7.8      4.578      6.431
REMARK  5 active torsions:
REMARK  status: ('A' for Active; 'I' for Inactive)
REMARK    1  A    between atoms: C_2  and  C_3 
REMARK    2  A    between atoms: C_6  and  C_21 
REMARK    3  A    between atoms: C_8  and  S_9 
REMARK    4  A    between atoms: S_9  and  N_12 
REMARK    5  A    between atoms: C_15  and  C_18 
REMARK       I    between atoms: C_18  and  N_20 
ROOT
HETATM    1  C   UNL     1      11.381  -3.425 -22.882  1.00  0.00     0.010 C 
HETATM    2  C   UNL     1      12.865  -3.558 -22.564  1.00  0.00     0.035 C 
ENDROOT
BRANCH   2   3
HETATM    3  C   UNL     1      13.451  -4.773 -23.238  1.00  0.00    -0.035 C 
HETATM    4  C   UNL     1      13.124  -4.974 -24.595  1.00  0.00     0.009 C 
HETATM    5  C   UNL     1      13.462  -6.158 -25.260  1.00  0.00     0.014 C 
HETATM    6  C   UNL     1      14.178  -7.160 -24.597  1.00  0.00    -0.006 C 
HETATM    7  C   UNL     1      14.653  -6.891 -23.317  1.00  0.00     0.039 C 
HETATM    8  C   UNL     1      14.243  -5.750 -22.605  1.00  0.00     0.086 C 
BRANCH   6   9
HETATM    9  C   UNL     1      14.383  -8.477 -25.287  1.00  0.00     0.065 A 
HETATM   10  C   UNL     1      15.440  -8.615 -26.350  1.00  0.00    -0.017 A 
HETATM   11  C   UNL     1      16.365  -7.491 -26.753  1.00  0.00     0.042 C 
HETATM   12  C   UNL     1      15.554  -9.833 -26.911  1.00  0.00     0.020 A 
HETATM   13  C   UNL     1      17.572  -7.922 -27.587  1.00  0.00     0.005 C 
HETATM   14  C   UNL     1      17.129  -8.899 -28.666  1.00  0.00     0.005 C 
HETATM   15  C   UNL     1      16.525 -10.147 -28.024  1.00  0.00     0.045 C 
HETATM   16  C   UNL     1      14.713 -10.974 -26.457  1.00  0.00     0.268 A 
HETATM   17  O   UNL     1      14.863 -12.083 -26.965  1.00  0.00    -0.266 OA
HETATM   18  N   UNL     1      13.799 -10.694 -25.455  1.00  0.00    -0.261 N 
HETATM   19  C   UNL     1      12.928 -11.739 -24.950  1.00  0.00     0.181 C 
HETATM   20  N   UNL     1      13.638  -9.462 -24.880  1.00  0.00    -0.295 N 
HETATM   21  HN  UNL     1      12.946  -9.320 -24.144  1.00  0.00     0.187 HD
ENDBRANCH   6   9
BRANCH   8  22
HETATM   22  S   UNL     1      14.657  -5.779 -20.858  1.00  0.00     0.261 S 
HETATM   23  O   UNL     1      15.604  -4.733 -20.547  1.00  0.00    -0.200 OA
HETATM   24  O   UNL     1      13.396  -5.841 -20.144  1.00  0.00    -0.200 OA
BRANCH  22  25
HETATM   25  N   UNL     1      15.428  -7.283 -20.694  1.00  0.00    -0.307 N 
HETATM   26  C   UNL     1      16.858  -7.295 -20.304  1.00  0.00     0.136 C 
HETATM   27  C   UNL     1      17.020  -7.237 -18.784  1.00  0.00     0.034 C 
HETATM   28  C   UNL     1      16.210  -8.325 -18.065  1.00  0.00     0.081 C 
HETATM   29  C   UNL     1      14.753  -8.306 -18.541  1.00  0.00     0.034 C 
HETATM   30  C   UNL     1      14.656  -8.377 -20.059  1.00  0.00     0.136 C 
BRANCH  28  31
HETATM   31  C   UNL     1      16.856  -9.696 -18.240  1.00  0.00     0.219 C 
HETATM   32  O   UNL     1      16.241 -10.716 -18.525  1.00  0.00    -0.273 OA
HETATM   33  N   UNL     1      18.209  -9.736 -18.078  1.00  0.00    -0.370 N 
HETATM   34  HN1 UNL     1      18.781  -8.903 -18.089  1.00  0.00     0.159 HD
HETATM   35  HN2 UNL     1      18.660 -10.620 -18.277  1.00  0.00     0.159 HD
ENDBRANCH  28  31
ENDBRANCH  22  25
ENDBRANCH   8  22
ENDBRANCH   2   3
TORSDOF 5
ENDMDL
MODEL 5
REMARK VINA RESULT:      -7.8      3.514      7.305
REMARK  5 active torsions:
REMARK  status: ('A' for Active; 'I' for Inactive)
REMARK    1  A    between atoms: C_2  and  C_3 
REMARK    2  A    between atoms: C_6  and  C_21 
REMARK    3  A    between atoms: C_8  and  S_9 
REMARK    4  A    between atoms: S_9  and  N_12 
REMARK    5  A    between atoms: C_15  and  C_18 
REMARK       I    between atoms: C_18  and  N_20 
ROOT
HETATM    1  C   UNL     1      14.184  -5.781 -23.373  1.00  0.00     0.010 C 
HETATM    2  C   UNL     1      13.677  -4.347 -23.464  1.00  0.00     0.035 C 
ENDROOT
BRANCH   2   3
HETATM    3  C   UNL     1      13.679  -3.691 -22.107  1.00  0.00    -0.035 C 
HETATM    4  C   UNL     1      14.931  -3.514 -21.482  1.00  0.00     0.009 C 
HETATM    5  C   UNL     1      15.031  -3.086 -20.153  1.00  0.00     0.014 C 
HETATM    6  C   UNL     1      13.878  -2.779 -19.422  1.00  0.00    -0.006 C 
HETATM    7  C   UNL     1      12.657  -2.783 -20.089  1.00  0.00     0.039 C 
HETATM    8  C   UNL     1      12.532  -3.299 -21.392  1.00  0.00     0.086 C 
BRANCH   6   9
HETATM    9  C   UNL     1      14.011  -2.480 -17.958  1.00  0.00     0.065 A 
HETATM   10  C   UNL     1      13.799  -3.571 -16.943  1.00  0.00    -0.017 A 
HETATM   11  C   UNL     1      13.492  -5.003 -17.314  1.00  0.00     0.042 C 
HETATM   12  C   UNL     1      13.942  -3.212 -15.654  1.00  0.00     0.020 A 
HETATM   13  C   UNL     1      13.650  -6.009 -16.173  1.00  0.00     0.005 C 
HETATM   14  C   UNL     1      13.021  -5.453 -14.905  1.00  0.00     0.005 C 
HETATM   15  C   UNL     1      13.723  -4.158 -14.499  1.00  0.00     0.045 C 
HETATM   16  C   UNL     1      14.337  -1.827 -15.279  1.00  0.00     0.268 A 
HETATM   17  O   UNL     1      14.493  -1.536 -14.094  1.00  0.00    -0.266 OA
HETATM   18  N   UNL     1      14.515  -0.941 -16.327  1.00  0.00    -0.261 N 
HETATM   19  C   UNL     1      14.895   0.435 -16.063  1.00  0.00     0.181 C 
HETATM   20  N   UNL     1      14.354  -1.265 -17.648  1.00  0.00    -0.295 N 
HETATM   21  HN  UNL     1      14.501  -0.565 -18.375  1.00  0.00     0.187 HD
ENDBRANCH   6   9
BRANCH   8  22
HETATM   22  S   UNL     1      10.836  -3.565 -21.923  1.00  0.00     0.261 S 
HETATM   23  O   UNL     1       9.913  -3.030 -20.949  1.00  0.00    -0.200 OA
HETATM   24  O   UNL     1      10.768  -3.113 -23.300  1.00  0.00    -0.200 OA
BRANCH  22  25
HETATM   25  N   UNL     1      10.717  -5.259 -21.919  1.00  0.00    -0.307 N 
HETATM   26  C   UNL     1      11.489  -6.009 -20.901  1.00  0.00     0.136 C 
HETATM   27  C   UNL     1      10.714  -6.122 -19.587  1.00  0.00     0.034 C 
HETATM   28  C   UNL     1       9.301  -6.690 -19.785  1.00  0.00     0.081 C 
HETATM   29  C   UNL     1       8.565  -5.915 -20.884  1.00  0.00     0.034 C 
HETATM   30  C   UNL     1       9.380  -5.846 -22.168  1.00  0.00     0.136 C 
BRANCH  28  31
HETATM   31  C   UNL     1       9.348  -8.189 -20.069  1.00  0.00     0.219 C 
HETATM   32  O   UNL     1       8.617  -8.762 -20.867  1.00  0.00    -0.273 OA
HETATM   33  N   UNL     1      10.291  -8.890 -19.380  1.00  0.00    -0.370 N 
HETATM   34  HN1 UNL     1      11.065  -8.442 -18.909  1.00  0.00     0.159 HD
HETATM   35  HN2 UNL     1      10.391  -9.868 -19.623  1.00  0.00     0.159 HD
ENDBRANCH  28  31
ENDBRANCH  22  25
ENDBRANCH   8  22
ENDBRANCH   2   3
TORSDOF 5
ENDMDL
MODEL 6
REMARK VINA RESULT:      -7.8      4.428      6.626
REMARK  5 active torsions:
REMARK  status: ('A' for Active; 'I' for Inactive)
REMARK    1  A    between atoms: C_2  and  C_3 
REMARK    2  A    between atoms: C_6  and  C_21 
REMARK    3  A    between atoms: C_8  and  S_9 
REMARK    4  A    between atoms: S_9  and  N_12 
REMARK    5  A    between atoms: C_15  and  C_18 
REMARK       I    between atoms: C_18  and  N_20 
ROOT
HETATM    1  C   UNL     1      13.974 -12.845 -19.805  1.00  0.00     0.010 C 
HETATM    2  C   UNL     1      14.056 -11.387 -19.372  1.00  0.00     0.035 C 
ENDROOT
BRANCH   2   3
HETATM    3  C   UNL     1      14.177 -10.478 -20.568  1.00  0.00    -0.035 C 
HETATM    4  C   UNL     1      13.343 -10.755 -21.671  1.00  0.00     0.009 C 
HETATM    5  C   UNL     1      13.504 -10.092 -22.893  1.00  0.00     0.014 C 
HETATM    6  C   UNL     1      14.477  -9.096 -23.034  1.00  0.00    -0.006 C 
HETATM    7  C   UNL     1      15.179  -8.699 -21.899  1.00  0.00     0.039 C 
HETATM    8  C   UNL     1      15.095  -9.418 -20.694  1.00  0.00     0.086 C 
BRANCH   6   9
HETATM    9  C   UNL     1      14.728  -8.520 -24.396  1.00  0.00     0.065 A 
HETATM   10  C   UNL     1      14.348  -7.095 -24.694  1.00  0.00    -0.017 A 
HETATM   11  C   UNL     1      13.748  -6.163 -23.668  1.00  0.00     0.042 C 
HETATM   12  C   UNL     1      14.614  -6.663 -25.941  1.00  0.00     0.020 A 
HETATM   13  C   UNL     1      13.752  -4.686 -24.063  1.00  0.00     0.005 C 
HETATM   14  C   UNL     1      13.300  -4.538 -25.508  1.00  0.00     0.005 C 
HETATM   15  C   UNL     1      14.261  -5.280 -26.434  1.00  0.00     0.045 C 
HETATM   16  C   UNL     1      15.291  -7.541 -26.933  1.00  0.00     0.268 A 
HETATM   17  O   UNL     1      15.551  -7.109 -28.054  1.00  0.00    -0.266 OA
HETATM   18  N   UNL     1      15.597  -8.821 -26.503  1.00  0.00    -0.261 N 
HETATM   19  C   UNL     1      16.252  -9.756 -27.400  1.00  0.00     0.181 C 
HETATM   20  N   UNL     1      15.318  -9.302 -25.251  1.00  0.00    -0.295 N 
HETATM   21  HN  UNL     1      15.569 -10.257 -24.995  1.00  0.00     0.187 HD
ENDBRANCH   6   9
BRANCH   8  22
HETATM   22  S   UNL     1      16.349  -8.981 -19.484  1.00  0.00     0.261 S 
HETATM   23  O   UNL     1      16.579 -10.082 -18.576  1.00  0.00    -0.200 OA
HETATM   24  O   UNL     1      17.459  -8.425 -20.234  1.00  0.00    -0.200 OA
BRANCH  22  25
HETATM   25  N   UNL     1      15.604  -7.714 -18.632  1.00  0.00    -0.307 N 
HETATM   26  C   UNL     1      14.153  -7.824 -18.350  1.00  0.00     0.136 C 
HETATM   27  C   UNL     1      13.895  -8.612 -17.063  1.00  0.00     0.034 C 
HETATM   28  C   UNL     1      14.684  -8.059 -15.868  1.00  0.00     0.081 C 
HETATM   29  C   UNL     1      16.167  -7.914 -16.229  1.00  0.00     0.034 C 
HETATM   30  C   UNL     1      16.360  -7.113 -17.510  1.00  0.00     0.136 C 
BRANCH  28  31
HETATM   31  C   UNL     1      14.081  -6.748 -15.372  1.00  0.00     0.219 C 
HETATM   32  O   UNL     1      13.244  -6.099 -15.988  1.00  0.00    -0.273 OA
HETATM   33  N   UNL     1      14.517  -6.320 -14.155  1.00  0.00    -0.370 N 
HETATM   34  HN1 UNL     1      15.006  -6.927 -13.510  1.00  0.00     0.159 HD
HETATM   35  HN2 UNL     1      14.061  -5.499 -13.776  1.00  0.00     0.159 HD
ENDBRANCH  28  31
ENDBRANCH  22  25
ENDBRANCH   8  22
ENDBRANCH   2   3
TORSDOF 5
ENDMDL
MODEL 7
REMARK VINA RESULT:      -7.7      2.870      6.813
REMARK  5 active torsions:
REMARK  status: ('A' for Active; 'I' for Inactive)
REMARK    1  A    between atoms: C_2  and  C_3 
REMARK    2  A    between atoms: C_6  and  C_21 
REMARK    3  A    between atoms: C_8  and  S_9 
REMARK    4  A    between atoms: S_9  and  N_12 
REMARK    5  A    between atoms: C_15  and  C_18 
REMARK       I    between atoms: C_18  and  N_20 
ROOT
HETATM    1  C   UNL     1       9.372  -3.823 -22.118  1.00  0.00     0.010 C 
HETATM    2  C   UNL     1      10.777  -3.343 -22.459  1.00  0.00     0.035 C 
ENDROOT
BRANCH   2   3
HETATM    3  C   UNL     1      11.505  -2.893 -21.219  1.00  0.00    -0.035 C 
HETATM    4  C   UNL     1      10.941  -1.821 -20.497  1.00  0.00     0.009 C 
HETATM    5  C   UNL     1      11.628  -1.208 -19.443  1.00  0.00     0.014 C 
HETATM    6  C   UNL     1      12.884  -1.681 -19.049  1.00  0.00    -0.006 C 
HETATM    7  C   UNL     1      13.363  -2.846 -19.641  1.00  0.00     0.039 C 
HETATM    8  C   UNL     1      12.731  -3.414 -20.762  1.00  0.00     0.086 C 
BRANCH   6   9
HETATM    9  C   UNL     1      13.660  -0.904 -18.026  1.00  0.00     0.065 A 
HETATM   10  C   UNL     1      13.927  -1.501 -16.670  1.00  0.00    -0.017 A 
HETATM   11  C   UNL     1      13.488  -2.890 -16.272  1.00  0.00     0.042 C 
HETATM   12  C   UNL     1      14.633  -0.734 -15.819  1.00  0.00     0.020 A 
HETATM   13  C   UNL     1      14.143  -3.430 -15.000  1.00  0.00     0.005 C 
HETATM   14  C   UNL     1      14.149  -2.352 -13.927  1.00  0.00     0.005 C 
HETATM   15  C   UNL     1      14.957  -1.146 -14.403  1.00  0.00     0.045 C 
HETATM   16  C   UNL     1      15.153   0.598 -16.230  1.00  0.00     0.268 A 
HETATM   17  O   UNL     1      15.823   1.263 -15.442  1.00  0.00    -0.266 OA
HETATM   18  N   UNL     1      14.841   1.001 -17.518  1.00  0.00    -0.261 N 
HETATM   19  C   UNL     1      15.296   2.288 -18.010  1.00  0.00     0.181 C 
HETATM   20  N   UNL     1      14.104   0.258 -18.401  1.00  0.00    -0.295 N 
HETATM   21  HN  UNL     1      13.908   0.611 -19.338  1.00  0.00     0.187 HD
ENDBRANCH   6   9
BRANCH   8  22
HETATM   22  S   UNL     1      13.701  -4.672 -21.600  1.00  0.00     0.261 S 
HETATM   23  O   UNL     1      12.840  -5.702 -22.132  1.00  0.00    -0.200 OA
HETATM   24  O   UNL     1      14.604  -3.962 -22.487  1.00  0.00    -0.200 OA
BRANCH  22  25
HETATM   25  N   UNL     1      14.620  -5.326 -20.330  1.00  0.00    -0.307 N 
HETATM   26  C   UNL     1      14.044  -6.459 -19.566  1.00  0.00     0.136 C 
HETATM   27  C   UNL     1      14.345  -7.797 -20.246  1.00  0.00     0.034 C 
HETATM   28  C   UNL     1      15.840  -7.986 -20.535  1.00  0.00     0.081 C 
HETATM   29  C   UNL     1      16.398  -6.766 -21.277  1.00  0.00     0.034 C 
HETATM   30  C   UNL     1      16.077  -5.468 -20.549  1.00  0.00     0.136 C 
BRANCH  28  31
HETATM   31  C   UNL     1      16.613  -8.285 -19.254  1.00  0.00     0.219 C 
HETATM   32  O   UNL     1      16.107  -8.330 -18.139  1.00  0.00    -0.273 OA
HETATM   33  N   UNL     1      17.944  -8.527 -19.410  1.00  0.00    -0.370 N 
HETATM   34  HN1 UNL     1      18.354  -8.743 -20.308  1.00  0.00     0.159 HD
HETATM   35  HN2 UNL     1      18.450  -8.811 -18.580  1.00  0.00     0.159 HD
ENDBRANCH  28  31
ENDBRANCH  22  25
ENDBRANCH   8  22
ENDBRANCH   2   3
TORSDOF 5
ENDMDL
MODEL 8
REMARK VINA RESULT:      -7.7      2.766      7.301
REMARK  5 active torsions:
REMARK  status: ('A' for Active; 'I' for Inactive)
REMARK    1  A    between atoms: C_2  and  C_3 
REMARK    2  A    between atoms: C_6  and  C_21 
REMARK    3  A    between atoms: C_8  and  S_9 
REMARK    4  A    between atoms: S_9  and  N_12 
REMARK    5  A    between atoms: C_15  and  C_18 
REMARK       I    between atoms: C_18  and  N_20 
ROOT
HETATM    1  C   UNL     1       9.050  -3.751 -21.908  1.00  0.00     0.010 C 
HETATM    2  C   UNL     1      10.494  -3.540 -22.344  1.00  0.00     0.035 C 
ENDROOT
BRANCH   2   3
HETATM    3  C   UNL     1      11.336  -3.051 -21.192  1.00  0.00    -0.035 C 
HETATM    4  C   UNL     1      10.693  -2.262 -20.217  1.00  0.00     0.009 C 
HETATM    5  C   UNL     1      11.415  -1.609 -19.212  1.00  0.00     0.014 C 
HETATM    6  C   UNL     1      12.803  -1.764 -19.127  1.00  0.00    -0.006 C 
HETATM    7  C   UNL     1      13.416  -2.680 -19.977  1.00  0.00     0.039 C 
HETATM    8  C   UNL     1      12.720  -3.268 -21.048  1.00  0.00     0.086 C 
BRANCH   6   9
HETATM    9  C   UNL     1      13.563  -0.926 -18.141  1.00  0.00     0.065 A 
HETATM   10  C   UNL     1      13.871  -1.468 -16.770  1.00  0.00    -0.017 A 
HETATM   11  C   UNL     1      13.488  -2.858 -16.321  1.00  0.00     0.042 C 
HETATM   12  C   UNL     1      14.559  -0.649 -15.955  1.00  0.00     0.020 A 
HETATM   13  C   UNL     1      14.180  -3.332 -15.042  1.00  0.00     0.005 C 
HETATM   14  C   UNL     1      14.160  -2.220 -14.005  1.00  0.00     0.005 C 
HETATM   15  C   UNL     1      14.917  -1.002 -14.531  1.00  0.00     0.045 C 
HETATM   16  C   UNL     1      15.025   0.687 -16.417  1.00  0.00     0.268 A 
HETATM   17  O   UNL     1      15.680   1.401 -15.660  1.00  0.00    -0.266 OA
HETATM   18  N   UNL     1      14.680   1.036 -17.712  1.00  0.00    -0.261 N 
HETATM   19  C   UNL     1      15.082   2.322 -18.252  1.00  0.00     0.181 C 
HETATM   20  N   UNL     1      13.960   0.238 -18.560  1.00  0.00    -0.295 N 
HETATM   21  HN  UNL     1      13.738   0.553 -19.505  1.00  0.00     0.187 HD
ENDBRANCH   6   9
BRANCH   8  22
HETATM   22  S   UNL     1      13.769  -4.111 -22.238  1.00  0.00     0.261 S 
HETATM   23  O   UNL     1      13.307  -3.859 -23.584  1.00  0.00    -0.200 OA
HETATM   24  O   UNL     1      15.135  -3.785 -21.876  1.00  0.00    -0.200 OA
BRANCH  22  25
HETATM   25  N   UNL     1      13.501  -5.745 -21.863  1.00  0.00    -0.307 N 
HETATM   26  C   UNL     1      13.480  -6.722 -22.978  1.00  0.00     0.136 C 
HETATM   27  C   UNL     1      14.891  -7.207 -23.319  1.00  0.00     0.034 C 
HETATM   28  C   UNL     1      15.642  -7.739 -22.090  1.00  0.00     0.081 C 
HETATM   29  C   UNL     1      15.588  -6.716 -20.949  1.00  0.00     0.034 C 
HETATM   30  C   UNL     1      14.161  -6.280 -20.650  1.00  0.00     0.136 C 
BRANCH  28  31
HETATM   31  C   UNL     1      15.105  -9.103 -21.668  1.00  0.00     0.219 C 
HETATM   32  O   UNL     1      15.123  -9.524 -20.518  1.00  0.00    -0.273 OA
HETATM   33  N   UNL     1      14.563  -9.858 -22.664  1.00  0.00    -0.370 N 
HETATM   34  HN1 UNL     1      14.303  -9.468 -23.559  1.00  0.00     0.159 HD
HETATM   35  HN2 UNL     1      14.125 -10.727 -22.383  1.00  0.00     0.159 HD
ENDBRANCH  28  31
ENDBRANCH  22  25
ENDBRANCH   8  22
ENDBRANCH   2   3
TORSDOF 5
ENDMDL
MODEL 9
REMARK VINA RESULT:      -7.7      3.244      5.689
REMARK  5 active torsions:
REMARK  status: ('A' for Active; 'I' for Inactive)
REMARK    1  A    between atoms: C_2  and  C_3 
REMARK    2  A    between atoms: C_6  and  C_21 
REMARK    3  A    between atoms: C_8  and  S_9 
REMARK    4  A    between atoms: S_9  and  N_12 
REMARK    5  A    between atoms: C_15  and  C_18 
REMARK       I    between atoms: C_18  and  N_20 
ROOT
HETATM    1  C   UNL     1      16.942  -8.330 -15.989  1.00  0.00     0.010 C 
HETATM    2  C   UNL     1      16.551  -6.876 -16.214  1.00  0.00     0.035 C 
ENDROOT
BRANCH   2   3
HETATM    3  C   UNL     1      15.155  -6.777 -16.777  1.00  0.00    -0.035 C 
HETATM    4  C   UNL     1      14.924  -7.385 -18.029  1.00  0.00     0.009 C 
HETATM    5  C   UNL     1      13.723  -7.196 -18.722  1.00  0.00     0.014 C 
HETATM    6  C   UNL     1      12.697  -6.428 -18.160  1.00  0.00    -0.006 C 
HETATM    7  C   UNL     1      12.855  -5.976 -16.854  1.00  0.00     0.039 C 
HETATM    8  C   UNL     1      14.088  -6.077 -16.184  1.00  0.00     0.086 C 
BRANCH   6   9
HETATM    9  C   UNL     1      11.491  -6.115 -18.996  1.00  0.00     0.065 A 
HETATM   10  C   UNL     1      11.366  -4.772 -19.665  1.00  0.00    -0.017 A 
HETATM   11  C   UNL     1      12.426  -3.700 -19.583  1.00  0.00     0.042 C 
HETATM   12  C   UNL     1      10.252  -4.581 -20.397  1.00  0.00     0.020 A 
HETATM   13  C   UNL     1      12.269  -2.564 -20.594  1.00  0.00     0.005 C 
HETATM   14  C   UNL     1      10.815  -2.121 -20.650  1.00  0.00     0.005 C 
HETATM   15  C   UNL     1       9.933  -3.284 -21.101  1.00  0.00     0.045 C 
HETATM   16  C   UNL     1       9.244  -5.663 -20.564  1.00  0.00     0.268 A 
HETATM   17  O   UNL     1       8.252  -5.471 -21.265  1.00  0.00    -0.266 OA
HETATM   18  N   UNL     1       9.510  -6.849 -19.902  1.00  0.00    -0.261 N 
HETATM   19  C   UNL     1       8.584  -7.962 -19.997  1.00  0.00     0.181 C 
HETATM   20  N   UNL     1      10.619  -7.069 -19.129  1.00  0.00    -0.295 N 
HETATM   21  HN  UNL     1      10.759  -7.968 -18.666  1.00  0.00     0.187 HD
ENDBRANCH   6   9
BRANCH   8  22
HETATM   22  S   UNL     1      14.192  -5.107 -14.676  1.00  0.00     0.261 S 
HETATM   23  O   UNL     1      12.877  -4.678 -14.260  1.00  0.00    -0.200 OA
HETATM   24  O   UNL     1      15.021  -5.869 -13.761  1.00  0.00    -0.200 OA
BRANCH  22  25
HETATM   25  N   UNL     1      15.079  -3.749 -15.180  1.00  0.00    -0.307 N 
HETATM   26  C   UNL     1      14.738  -3.141 -16.489  1.00  0.00     0.136 C 
HETATM   27  C   UNL     1      13.596  -2.133 -16.353  1.00  0.00     0.034 C 
HETATM   28  C   UNL     1      13.868  -1.078 -15.271  1.00  0.00     0.081 C 
HETATM   29  C   UNL     1      14.268  -1.755 -13.955  1.00  0.00     0.034 C 
HETATM   30  C   UNL     1      15.414  -2.737 -14.152  1.00  0.00     0.136 C 
BRANCH  28  31
HETATM   31  C   UNL     1      14.913  -0.069 -15.741  1.00  0.00     0.219 C 
HETATM   32  O   UNL     1      15.242   0.087 -16.911  1.00  0.00    -0.273 OA
HETATM   33  N   UNL     1      15.474   0.697 -14.765  1.00  0.00    -0.370 N 
HETATM   34  HN1 UNL     1      15.070   0.781 -13.842  1.00  0.00     0.159 HD
HETATM   35  HN2 UNL     1      16.103   1.428 -15.072  1.00  0.00     0.159 HD
ENDBRANCH  28  31
ENDBRANCH  22  25
ENDBRANCH   8  22
ENDBRANCH   2   3
TORSDOF 5
ENDMDL
