MODEL 1
REMARK VINA RESULT:      -7.1      0.000      0.000
REMARK  9 active torsions:
REMARK  status: ('A' for Active; 'I' for Inactive)
REMARK    1  A    between atoms: C_2  and  C_3 
REMARK    2  A    between atoms: C_3  and  C_4 
REMARK    3  A    between atoms: C_4  and  C_5 
REMARK    4  A    between atoms: C_5  and  C_6 
REMARK    5  A    between atoms: C_6  and  C_7 
REMARK    6  A    between atoms: C_7  and  O_8 
REMARK    7  A    between atoms: O_8  and  C_9 
REMARK    8  A    between atoms: C_9  and  C_11 
REMARK    9  A    between atoms: C_14  and  N_17 
ROOT
HETATM    1  C   UNL     1      13.321  -1.596 -17.994  1.00  0.00     0.005 C 
HETATM    2  C   UNL     1      12.328  -2.455 -18.766  1.00  0.00    -0.005 C 
ENDROOT
BRANCH   2   3
HETATM    3  C   UNL     1      11.534  -1.643 -19.792  1.00  0.00    -0.000 C 
BRANCH   3   4
HETATM    4  C   UNL     1      11.288  -2.449 -21.078  1.00  0.00     0.000 C 
BRANCH   4   5
HETATM    5  C   UNL     1      10.973  -3.914 -20.769  1.00  0.00     0.002 C 
BRANCH   5   6
HETATM    6  C   UNL     1      10.339  -4.672 -21.949  1.00  0.00     0.027 C 
BRANCH   6   7
HETATM    7  C   UNL     1      11.373  -5.618 -22.558  1.00  0.00     0.179 C 
BRANCH   7   8
HETATM    8  O   UNL     1      12.237  -5.014 -23.536  1.00  0.00    -0.318 OA
BRANCH   8   9
HETATM    9  C   UNL     1      13.538  -5.414 -23.509  1.00  0.00     0.293 C 
HETATM   10  O   UNL     1      14.137  -5.932 -24.427  1.00  0.00    -0.259 OA
BRANCH   9  11
HETATM   11  C   UNL     1      14.206  -4.952 -22.262  1.00  0.00     0.039 A 
HETATM   12  C   UNL     1      14.466  -3.606 -22.063  1.00  0.00     0.020 A 
HETATM   13  C   UNL     1      15.211  -3.186 -20.942  1.00  0.00     0.031 A 
HETATM   14  C   UNL     1      15.764  -4.095 -20.014  1.00  0.00     0.045 A 
HETATM   15  C   UNL     1      15.520  -5.450 -20.245  1.00  0.00     0.031 A 
HETATM   16  C   UNL     1      14.747  -5.875 -21.353  1.00  0.00     0.020 A 
BRANCH  14  17
HETATM   17  N   UNL     1      16.498  -3.613 -18.892  1.00  0.00    -0.252 N 
HETATM   18  C   UNL     1      16.245  -4.051 -17.608  1.00  0.00     0.238 C 
HETATM   19  O   UNL     1      15.218  -4.490 -17.126  1.00  0.00    -0.272 OA
HETATM   20  C   UNL     1      17.517  -3.771 -16.859  1.00  0.00     0.122 C 
HETATM   21  C   UNL     1      17.688  -2.319 -17.335  1.00  0.00     0.122 C 
HETATM   22  C   UNL     1      17.517  -3.936 -15.345  1.00  0.00     0.086 C 
HETATM   23  C   UNL     1      17.597  -2.729 -18.836  1.00  0.00     0.238 C 
HETATM   24  C   UNL     1      17.693  -1.392 -16.061  1.00  0.00     0.086 C 
HETATM   25  O   UNL     1      18.392  -2.447 -19.714  1.00  0.00    -0.272 OA
HETATM   26  C   UNL     1      18.832  -1.832 -15.128  1.00  0.00    -0.025 C 
HETATM   27  C   UNL     1      16.386  -1.743 -15.240  1.00  0.00    -0.025 A 
HETATM   28 BR   UNL     1      17.796   0.479 -16.573  1.00  0.00    -0.074 Br
HETATM   29  C   UNL     1      19.722  -1.000 -14.440  1.00  0.00     0.010 C 
HETATM   30  C   UNL     1      18.792  -3.229 -14.819  1.00  0.00    -0.025 C 
HETATM   31  C   UNL     1      20.649  -1.556 -13.558  1.00  0.00     0.001 C 
HETATM   32  C   UNL     1      20.697  -2.936 -13.361  1.00  0.00     0.001 C 
HETATM   33  C   UNL     1      19.764  -3.774 -13.977  1.00  0.00     0.010 C 
HETATM   34  C   UNL     1      16.317  -3.130 -14.852  1.00  0.00    -0.025 A 
HETATM   35  C   UNL     1      15.329  -0.909 -14.889  1.00  0.00     0.010 A 
HETATM   36  C   UNL     1      15.190  -3.645 -14.206  1.00  0.00     0.010 A 
HETATM   37  C   UNL     1      14.126  -2.801 -13.920  1.00  0.00     0.001 A 
HETATM   38  C   UNL     1      14.205  -1.443 -14.237  1.00  0.00     0.001 A 
HETATM   39 BR   UNL     1      17.476  -5.836 -14.937  1.00  0.00    -0.074 Br
ENDBRANCH  14  17
ENDBRANCH   9  11
ENDBRANCH   8   9
ENDBRANCH   7   8
ENDBRANCH   6   7
ENDBRANCH   5   6
ENDBRANCH   4   5
ENDBRANCH   3   4
ENDBRANCH   2   3
TORSDOF 9
ENDMDL
MODEL 2
REMARK VINA RESULT:      -7.0      4.406      7.714
REMARK  9 active torsions:
REMARK  status: ('A' for Active; 'I' for Inactive)
REMARK    1  A    between atoms: C_2  and  C_3 
REMARK    2  A    between atoms: C_3  and  C_4 
REMARK    3  A    between atoms: C_4  and  C_5 
REMARK    4  A    between atoms: C_5  and  C_6 
REMARK    5  A    between atoms: C_6  and  C_7 
REMARK    6  A    between atoms: C_7  and  O_8 
REMARK    7  A    between atoms: O_8  and  C_9 
REMARK    8  A    between atoms: C_9  and  C_11 
REMARK    9  A    between atoms: C_14  and  N_17 
ROOT
HETATM    1  C   UNL     1      26.887  -9.323 -20.732  1.00  0.00     0.005 C 
HETATM    2  C   UNL     1      25.602  -8.707 -20.194  1.00  0.00    -0.005 C 
ENDROOT
BRANCH   2   3
HETATM    3  C   UNL     1      25.477  -7.223 -20.548  1.00  0.00    -0.000 C 
BRANCH   3   4
HETATM    4  C   UNL     1      24.108  -6.906 -21.171  1.00  0.00     0.000 C 
BRANCH   4   5
HETATM    5  C   UNL     1      24.134  -5.578 -21.932  1.00  0.00     0.002 C 
BRANCH   5   6
HETATM    6  C   UNL     1      22.912  -4.685 -21.657  1.00  0.00     0.027 C 
BRANCH   6   7
HETATM    7  C   UNL     1      23.317  -3.217 -21.787  1.00  0.00     0.179 C 
BRANCH   7   8
HETATM    8  O   UNL     1      22.394  -2.403 -22.530  1.00  0.00    -0.318 OA
BRANCH   8   9
HETATM    9  C   UNL     1      22.073  -1.205 -21.971  1.00  0.00     0.293 C 
HETATM   10  O   UNL     1      22.475  -0.123 -22.340  1.00  0.00    -0.259 OA
BRANCH   9  11
HETATM   11  C   UNL     1      20.996  -1.367 -20.956  1.00  0.00     0.039 A 
HETATM   12  C   UNL     1      21.304  -1.765 -19.665  1.00  0.00     0.020 A 
HETATM   13  C   UNL     1      20.272  -2.040 -18.744  1.00  0.00     0.031 A 
HETATM   14  C   UNL     1      18.906  -1.979 -19.093  1.00  0.00     0.045 A 
HETATM   15  C   UNL     1      18.613  -1.607 -20.407  1.00  0.00     0.031 A 
HETATM   16  C   UNL     1      19.644  -1.300 -21.327  1.00  0.00     0.020 A 
BRANCH  14  17
HETATM   17  N   UNL     1      17.906  -2.256 -18.117  1.00  0.00    -0.252 N 
HETATM   18  C   UNL     1      17.345  -3.509 -17.979  1.00  0.00     0.238 C 
HETATM   19  O   UNL     1      17.213  -4.395 -18.802  1.00  0.00    -0.272 OA
HETATM   20  C   UNL     1      16.812  -3.529 -16.575  1.00  0.00     0.122 C 
HETATM   21  C   UNL     1      16.079  -2.179 -16.644  1.00  0.00     0.122 C 
HETATM   22  C   UNL     1      15.931  -4.696 -16.150  1.00  0.00     0.086 C 
HETATM   23  C   UNL     1      17.363  -1.428 -17.111  1.00  0.00     0.238 C 
HETATM   24  C   UNL     1      14.552  -2.444 -16.358  1.00  0.00     0.086 C 
HETATM   25  O   UNL     1      17.842  -0.428 -16.608  1.00  0.00    -0.272 OA
HETATM   26  C   UNL     1      14.410  -3.108 -14.980  1.00  0.00    -0.025 C 
HETATM   27  C   UNL     1      14.094  -3.578 -17.363  1.00  0.00    -0.025 A 
HETATM   28 BR   UNL     1      13.525  -0.805 -16.532  1.00  0.00    -0.074 Br
HETATM   29  C   UNL     1      13.460  -2.809 -13.997  1.00  0.00     0.010 C 
HETATM   30  C   UNL     1      15.231  -4.272 -14.834  1.00  0.00    -0.025 C 
HETATM   31  C   UNL     1      13.410  -3.568 -12.828  1.00  0.00     0.001 C 
HETATM   32  C   UNL     1      14.304  -4.620 -12.630  1.00  0.00     0.001 C 
HETATM   33  C   UNL     1      15.205  -4.984 -13.632  1.00  0.00     0.010 C 
HETATM   34  C   UNL     1      14.851  -4.797 -17.225  1.00  0.00    -0.025 A 
HETATM   35  C   UNL     1      13.105  -3.526 -18.342  1.00  0.00     0.010 A 
HETATM   36  C   UNL     1      14.653  -5.874 -18.093  1.00  0.00     0.010 A 
HETATM   37  C   UNL     1      13.699  -5.771 -19.096  1.00  0.00     0.001 A 
HETATM   38  C   UNL     1      12.918  -4.618 -19.204  1.00  0.00     0.001 A 
HETATM   39 BR   UNL     1      17.057  -6.267 -15.942  1.00  0.00    -0.074 Br
ENDBRANCH  14  17
ENDBRANCH   9  11
ENDBRANCH   8   9
ENDBRANCH   7   8
ENDBRANCH   6   7
ENDBRANCH   5   6
ENDBRANCH   4   5
ENDBRANCH   3   4
ENDBRANCH   2   3
TORSDOF 9
ENDMDL
MODEL 3
REMARK VINA RESULT:      -6.8      4.225      8.181
REMARK  9 active torsions:
REMARK  status: ('A' for Active; 'I' for Inactive)
REMARK    1  A    between atoms: C_2  and  C_3 
REMARK    2  A    between atoms: C_3  and  C_4 
REMARK    3  A    between atoms: C_4  and  C_5 
REMARK    4  A    between atoms: C_5  and  C_6 
REMARK    5  A    between atoms: C_6  and  C_7 
REMARK    6  A    between atoms: C_7  and  O_8 
REMARK    7  A    between atoms: O_8  and  C_9 
REMARK    8  A    between atoms: C_9  and  C_11 
REMARK    9  A    between atoms: C_14  and  N_17 
ROOT
HETATM    1  C   UNL     1      24.507  -6.815 -20.872  1.00  0.00     0.005 C 
HETATM    2  C   UNL     1      23.447  -6.749 -21.962  1.00  0.00    -0.005 C 
ENDROOT
BRANCH   2   3
HETATM    3  C   UNL     1      22.727  -5.398 -21.991  1.00  0.00    -0.000 C 
BRANCH   3   4
HETATM    4  C   UNL     1      23.721  -4.228 -21.906  1.00  0.00     0.000 C 
BRANCH   4   5
HETATM    5  C   UNL     1      22.997  -2.881 -21.863  1.00  0.00     0.002 C 
BRANCH   5   6
HETATM    6  C   UNL     1      23.425  -1.988 -20.685  1.00  0.00     0.027 C 
BRANCH   6   7
HETATM    7  C   UNL     1      23.850  -0.619 -21.216  1.00  0.00     0.179 C 
BRANCH   7   8
HETATM    8  O   UNL     1      22.896   0.009 -22.089  1.00  0.00    -0.318 OA
BRANCH   8   9
HETATM    9  C   UNL     1      22.025   0.872 -21.496  1.00  0.00     0.293 C 
HETATM   10  O   UNL     1      22.129   2.079 -21.480  1.00  0.00    -0.259 OA
BRANCH   9  11
HETATM   11  C   UNL     1      20.807   0.156 -21.030  1.00  0.00     0.039 A 
HETATM   12  C   UNL     1      20.478   0.135 -19.684  1.00  0.00     0.020 A 
HETATM   13  C   UNL     1      19.396  -0.648 -19.231  1.00  0.00     0.031 A 
HETATM   14  C   UNL     1      18.643  -1.474 -20.094  1.00  0.00     0.045 A 
HETATM   15  C   UNL     1      19.007  -1.466 -21.442  1.00  0.00     0.031 A 
HETATM   16  C   UNL     1      20.073  -0.658 -21.907  1.00  0.00     0.020 A 
BRANCH  14  17
HETATM   17  N   UNL     1      17.553  -2.235 -19.583  1.00  0.00    -0.252 N 
HETATM   18  C   UNL     1      17.706  -3.537 -19.154  1.00  0.00     0.238 C 
HETATM   19  O   UNL     1      18.522  -4.374 -19.490  1.00  0.00    -0.272 OA
HETATM   20  C   UNL     1      16.550  -3.764 -18.220  1.00  0.00     0.122 C 
HETATM   21  C   UNL     1      15.460  -3.208 -19.150  1.00  0.00     0.122 C 
HETATM   22  C   UNL     1      16.286  -5.179 -17.724  1.00  0.00     0.086 C 
HETATM   23  C   UNL     1      16.214  -1.857 -19.341  1.00  0.00     0.238 C 
HETATM   24  C   UNL     1      14.417  -4.360 -19.412  1.00  0.00     0.086 C 
HETATM   25  O   UNL     1      15.756  -0.741 -19.174  1.00  0.00    -0.272 OA
HETATM   26  C   UNL     1      13.844  -4.831 -18.067  1.00  0.00    -0.025 C 
HETATM   27  C   UNL     1      15.243  -5.612 -19.920  1.00  0.00    -0.025 A 
HETATM   28 BR   UNL     1      13.054  -3.781 -20.669  1.00  0.00    -0.074 Br
HETATM   29  C   UNL     1      12.505  -5.119 -17.779  1.00  0.00     0.010 C 
HETATM   30  C   UNL     1      14.859  -5.181 -17.120  1.00  0.00    -0.025 C 
HETATM   31  C   UNL     1      12.159  -5.623 -16.525  1.00  0.00     0.001 C 
HETATM   32  C   UNL     1      13.139  -5.837 -15.555  1.00  0.00     0.001 C 
HETATM   33  C   UNL     1      14.488  -5.631 -15.851  1.00  0.00     0.010 C 
HETATM   34  C   UNL     1      16.247  -6.045 -18.981  1.00  0.00    -0.025 A 
HETATM   35  C   UNL     1      15.135  -6.294 -21.128  1.00  0.00     0.010 A 
HETATM   36  C   UNL     1      17.138  -7.074 -19.298  1.00  0.00     0.010 A 
HETATM   37  C   UNL     1      17.043  -7.698 -20.535  1.00  0.00     0.001 A 
HETATM   38  C   UNL     1      16.037  -7.327 -21.430  1.00  0.00     0.001 A 
HETATM   39 BR   UNL     1      17.662  -5.639 -16.430  1.00  0.00    -0.074 Br
ENDBRANCH  14  17
ENDBRANCH   9  11
ENDBRANCH   8   9
ENDBRANCH   7   8
ENDBRANCH   6   7
ENDBRANCH   5   6
ENDBRANCH   4   5
ENDBRANCH   3   4
ENDBRANCH   2   3
TORSDOF 9
ENDMDL
MODEL 4
REMARK VINA RESULT:      -6.8      4.183      8.455
REMARK  9 active torsions:
REMARK  status: ('A' for Active; 'I' for Inactive)
REMARK    1  A    between atoms: C_2  and  C_3 
REMARK    2  A    between atoms: C_3  and  C_4 
REMARK    3  A    between atoms: C_4  and  C_5 
REMARK    4  A    between atoms: C_5  and  C_6 
REMARK    5  A    between atoms: C_6  and  C_7 
REMARK    6  A    between atoms: C_7  and  O_8 
REMARK    7  A    between atoms: O_8  and  C_9 
REMARK    8  A    between atoms: C_9  and  C_11 
REMARK    9  A    between atoms: C_14  and  N_17 
ROOT
HETATM    1  C   UNL     1      22.089  -8.164 -22.901  1.00  0.00     0.005 C 
HETATM    2  C   UNL     1      22.055  -6.906 -22.045  1.00  0.00    -0.005 C 
ENDROOT
BRANCH   2   3
HETATM    3  C   UNL     1      23.445  -6.508 -21.543  1.00  0.00    -0.000 C 
BRANCH   3   4
HETATM    4  C   UNL     1      23.814  -5.081 -21.978  1.00  0.00     0.000 C 
BRANCH   4   5
HETATM    5  C   UNL     1      22.753  -4.070 -21.539  1.00  0.00     0.002 C 
BRANCH   5   6
HETATM    6  C   UNL     1      22.844  -2.721 -22.274  1.00  0.00     0.027 C 
BRANCH   6   7
HETATM    7  C   UNL     1      22.745  -1.583 -21.259  1.00  0.00     0.179 C 
BRANCH   7   8
HETATM    8  O   UNL     1      21.847  -1.830 -20.164  1.00  0.00    -0.318 OA
BRANCH   8   9
HETATM    9  C   UNL     1      20.639  -1.207 -20.233  1.00  0.00     0.293 C 
HETATM   10  O   UNL     1      20.464  -0.030 -20.460  1.00  0.00    -0.259 OA
BRANCH   9  11
HETATM   11  C   UNL     1      19.530  -2.199 -20.191  1.00  0.00     0.039 A 
HETATM   12  C   UNL     1      18.248  -1.833 -20.568  1.00  0.00     0.020 A 
HETATM   13  C   UNL     1      17.177  -2.736 -20.407  1.00  0.00     0.031 A 
HETATM   14  C   UNL     1      17.339  -4.009 -19.818  1.00  0.00     0.045 A 
HETATM   15  C   UNL     1      18.631  -4.351 -19.414  1.00  0.00     0.031 A 
HETATM   16  C   UNL     1      19.715  -3.460 -19.602  1.00  0.00     0.020 A 
BRANCH  14  17
HETATM   17  N   UNL     1      16.223  -4.885 -19.691  1.00  0.00    -0.252 N 
HETATM   18  C   UNL     1      15.130  -4.570 -18.910  1.00  0.00     0.238 C 
HETATM   19  O   UNL     1      15.057  -3.850 -17.932  1.00  0.00    -0.272 OA
HETATM   20  C   UNL     1      14.016  -5.411 -19.466  1.00  0.00     0.122 C 
HETATM   21  C   UNL     1      14.793  -6.738 -19.497  1.00  0.00     0.122 C 
HETATM   22  C   UNL     1      12.702  -5.475 -18.698  1.00  0.00     0.086 C 
HETATM   23  C   UNL     1      15.956  -6.116 -20.328  1.00  0.00     0.238 C 
HETATM   24  C   UNL     1      14.022  -7.769 -18.589  1.00  0.00     0.086 C 
HETATM   25  O   UNL     1      16.416  -6.550 -21.369  1.00  0.00    -0.272 OA
HETATM   26  C   UNL     1      12.589  -7.927 -19.119  1.00  0.00    -0.025 C 
HETATM   27  C   UNL     1      13.820  -7.071 -17.182  1.00  0.00    -0.025 A 
HETATM   28 BR   UNL     1      14.991  -9.449 -18.479  1.00  0.00    -0.074 Br
HETATM   29  C   UNL     1      11.873  -9.121 -19.263  1.00  0.00     0.010 C 
HETATM   30  C   UNL     1      11.909  -6.676 -19.271  1.00  0.00    -0.025 C 
HETATM   31  C   UNL     1      10.542  -9.086 -19.679  1.00  0.00     0.001 C 
HETATM   32  C   UNL     1       9.921  -7.868 -19.956  1.00  0.00     0.001 C 
HETATM   33  C   UNL     1      10.593  -6.663 -19.741  1.00  0.00     0.010 C 
HETATM   34  C   UNL     1      13.091  -5.830 -17.265  1.00  0.00    -0.025 A 
HETATM   35  C   UNL     1      14.271  -7.487 -15.932  1.00  0.00     0.010 A 
HETATM   36  C   UNL     1      12.902  -5.026 -16.138  1.00  0.00     0.010 A 
HETATM   37  C   UNL     1      13.413  -5.438 -14.915  1.00  0.00     0.001 A 
HETATM   38  C   UNL     1      14.070  -6.667 -14.810  1.00  0.00     0.001 A 
HETATM   39 BR   UNL     1      11.782  -3.777 -18.921  1.00  0.00    -0.074 Br
ENDBRANCH  14  17
ENDBRANCH   9  11
ENDBRANCH   8   9
ENDBRANCH   7   8
ENDBRANCH   6   7
ENDBRANCH   5   6
ENDBRANCH   4   5
ENDBRANCH   3   4
ENDBRANCH   2   3
TORSDOF 9
ENDMDL
MODEL 5
REMARK VINA RESULT:      -6.7      2.996      8.525
REMARK  9 active torsions:
REMARK  status: ('A' for Active; 'I' for Inactive)
REMARK    1  A    between atoms: C_2  and  C_3 
REMARK    2  A    between atoms: C_3  and  C_4 
REMARK    3  A    between atoms: C_4  and  C_5 
REMARK    4  A    between atoms: C_5  and  C_6 
REMARK    5  A    between atoms: C_6  and  C_7 
REMARK    6  A    between atoms: C_7  and  O_8 
REMARK    7  A    between atoms: O_8  and  C_9 
REMARK    8  A    between atoms: C_9  and  C_11 
REMARK    9  A    between atoms: C_14  and  N_17 
ROOT
HETATM    1  C   UNL     1      13.735  -3.650 -13.357  1.00  0.00     0.005 C 
HETATM    2  C   UNL     1      14.967  -3.184 -14.120  1.00  0.00    -0.005 C 
ENDROOT
BRANCH   2   3
HETATM    3  C   UNL     1      14.767  -3.245 -15.637  1.00  0.00    -0.000 C 
BRANCH   3   4
HETATM    4  C   UNL     1      15.706  -2.271 -16.368  1.00  0.00     0.000 C 
BRANCH   4   5
HETATM    5  C   UNL     1      15.978  -1.020 -15.529  1.00  0.00     0.002 C 
BRANCH   5   6
HETATM    6  C   UNL     1      17.446  -0.561 -15.563  1.00  0.00     0.027 C 
BRANCH   6   7
HETATM    7  C   UNL     1      18.217  -1.249 -14.436  1.00  0.00     0.179 C 
BRANCH   7   8
HETATM    8  O   UNL     1      19.471  -1.830 -14.834  1.00  0.00    -0.318 OA
BRANCH   8   9
HETATM    9  C   UNL     1      19.592  -3.172 -14.643  1.00  0.00     0.293 C 
HETATM   10  O   UNL     1      19.967  -3.709 -13.623  1.00  0.00    -0.259 OA
BRANCH   9  11
HETATM   11  C   UNL     1      19.011  -3.923 -15.789  1.00  0.00     0.039 A 
HETATM   12  C   UNL     1      19.164  -3.454 -17.084  1.00  0.00     0.020 A 
HETATM   13  C   UNL     1      18.507  -4.098 -18.152  1.00  0.00     0.031 A 
HETATM   14  C   UNL     1      17.637  -5.193 -17.960  1.00  0.00     0.045 A 
HETATM   15  C   UNL     1      17.469  -5.634 -16.646  1.00  0.00     0.031 A 
HETATM   16  C   UNL     1      18.150  -5.011 -15.573  1.00  0.00     0.020 A 
BRANCH  14  17
HETATM   17  N   UNL     1      17.009  -5.812 -19.079  1.00  0.00    -0.252 N 
HETATM   18  C   UNL     1      15.808  -5.359 -19.587  1.00  0.00     0.238 C 
HETATM   19  O   UNL     1      14.907  -4.761 -19.032  1.00  0.00    -0.272 OA
HETATM   20  C   UNL     1      15.786  -5.864 -21.002  1.00  0.00     0.122 C 
HETATM   21  C   UNL     1      16.177  -7.316 -20.679  1.00  0.00     0.122 C 
HETATM   22  C   UNL     1      14.497  -5.728 -21.801  1.00  0.00     0.086 C 
HETATM   23  C   UNL     1      17.452  -6.871 -19.900  1.00  0.00     0.238 C 
HETATM   24  C   UNL     1      15.018  -8.252 -21.190  1.00  0.00     0.086 C 
HETATM   25  O   UNL     1      18.589  -7.270 -20.081  1.00  0.00    -0.272 OA
HETATM   26  C   UNL     1      14.822  -8.029 -22.697  1.00  0.00    -0.025 C 
HETATM   27  C   UNL     1      13.676  -7.698 -20.557  1.00  0.00    -0.025 A 
HETATM   28 BR   UNL     1      15.374 -10.104 -20.726  1.00  0.00    -0.074 Br
HETATM   29  C   UNL     1      14.620  -9.012 -23.673  1.00  0.00     0.010 C 
HETATM   30  C   UNL     1      14.638  -6.651 -23.038  1.00  0.00    -0.025 C 
HETATM   31  C   UNL     1      14.370  -8.636 -24.993  1.00  0.00     0.001 C 
HETATM   32  C   UNL     1      14.325  -7.288 -25.347  1.00  0.00     0.001 C 
HETATM   33  C   UNL     1      14.444  -6.293 -24.375  1.00  0.00     0.010 C 
HETATM   34  C   UNL     1      13.409  -6.326 -20.912  1.00  0.00    -0.025 A 
HETATM   35  C   UNL     1      12.779  -8.345 -19.713  1.00  0.00     0.010 A 
HETATM   36  C   UNL     1      12.320  -5.638 -20.368  1.00  0.00     0.010 A 
HETATM   37  C   UNL     1      11.476  -6.293 -19.483  1.00  0.00     0.001 A 
HETATM   38  C   UNL     1      11.690  -7.639 -19.177  1.00  0.00     0.001 A 
HETATM   39 BR   UNL     1      14.263  -3.856 -22.268  1.00  0.00    -0.074 Br
ENDBRANCH  14  17
ENDBRANCH   9  11
ENDBRANCH   8   9
ENDBRANCH   7   8
ENDBRANCH   6   7
ENDBRANCH   5   6
ENDBRANCH   4   5
ENDBRANCH   3   4
ENDBRANCH   2   3
TORSDOF 9
ENDMDL
MODEL 6
REMARK VINA RESULT:      -6.7      2.333      4.139
REMARK  9 active torsions:
REMARK  status: ('A' for Active; 'I' for Inactive)
REMARK    1  A    between atoms: C_2  and  C_3 
REMARK    2  A    between atoms: C_3  and  C_4 
REMARK    3  A    between atoms: C_4  and  C_5 
REMARK    4  A    between atoms: C_5  and  C_6 
REMARK    5  A    between atoms: C_6  and  C_7 
REMARK    6  A    between atoms: C_7  and  O_8 
REMARK    7  A    between atoms: O_8  and  C_9 
REMARK    8  A    between atoms: C_9  and  C_11 
REMARK    9  A    between atoms: C_14  and  N_17 
ROOT
HETATM    1  C   UNL     1      16.545  -5.535 -30.229  1.00  0.00     0.005 C 
HETATM    2  C   UNL     1      16.201  -5.371 -28.755  1.00  0.00    -0.005 C 
ENDROOT
BRANCH   2   3
HETATM    3  C   UNL     1      15.159  -6.389 -28.285  1.00  0.00    -0.000 C 
BRANCH   3   4
HETATM    4  C   UNL     1      15.493  -6.930 -26.885  1.00  0.00     0.000 C 
BRANCH   4   5
HETATM    5  C   UNL     1      14.359  -6.655 -25.895  1.00  0.00     0.002 C 
BRANCH   5   6
HETATM    6  C   UNL     1      13.239  -5.769 -26.469  1.00  0.00     0.027 C 
BRANCH   6   7
HETATM    7  C   UNL     1      13.038  -4.555 -25.563  1.00  0.00     0.179 C 
BRANCH   7   8
HETATM    8  O   UNL     1      12.965  -4.859 -24.159  1.00  0.00    -0.318 OA
BRANCH   8   9
HETATM    9  C   UNL     1      12.336  -3.935 -23.382  1.00  0.00     0.293 C 
HETATM   10  O   UNL     1      11.205  -3.532 -23.541  1.00  0.00    -0.259 OA
BRANCH   9  11
HETATM   11  C   UNL     1      13.148  -3.619 -22.176  1.00  0.00     0.039 A 
HETATM   12  C   UNL     1      12.578  -2.958 -21.100  1.00  0.00     0.020 A 
HETATM   13  C   UNL     1      13.378  -2.548 -20.014  1.00  0.00     0.031 A 
HETATM   14  C   UNL     1      14.778  -2.736 -19.989  1.00  0.00     0.045 A 
HETATM   15  C   UNL     1      15.342  -3.375 -21.095  1.00  0.00     0.031 A 
HETATM   16  C   UNL     1      14.538  -3.816 -22.173  1.00  0.00     0.020 A 
BRANCH  14  17
HETATM   17  N   UNL     1      15.535  -2.312 -18.860  1.00  0.00    -0.252 N 
HETATM   18  C   UNL     1      15.827  -3.163 -17.813  1.00  0.00     0.238 C 
HETATM   19  O   UNL     1      15.223  -4.141 -17.417  1.00  0.00    -0.272 OA
HETATM   20  C   UNL     1      17.037  -2.555 -17.162  1.00  0.00     0.122 C 
HETATM   21  C   UNL     1      16.492  -1.120 -17.077  1.00  0.00     0.122 C 
HETATM   22  C   UNL     1      17.507  -3.124 -15.830  1.00  0.00     0.086 C 
HETATM   23  C   UNL     1      16.171  -1.079 -18.602  1.00  0.00     0.238 C 
HETATM   24  C   UNL     1      16.474  -0.700 -15.559  1.00  0.00     0.086 C 
HETATM   25  O   UNL     1      16.526  -0.225 -19.395  1.00  0.00    -0.272 OA
HETATM   26  C   UNL     1      17.898  -0.811 -14.993  1.00  0.00    -0.025 C 
HETATM   27  C   UNL     1      15.680  -1.831 -14.786  1.00  0.00    -0.025 A 
HETATM   28 BR   UNL     1      15.695   1.066 -15.342  1.00  0.00    -0.074 Br
HETATM   29  C   UNL     1      18.540   0.103 -14.150  1.00  0.00     0.010 C 
HETATM   30  C   UNL     1      18.493  -2.092 -15.226  1.00  0.00    -0.025 C 
HETATM   31  C   UNL     1      19.810  -0.189 -13.650  1.00  0.00     0.001 C 
HETATM   32  C   UNL     1      20.445  -1.384 -13.991  1.00  0.00     0.001 C 
HETATM   33  C   UNL     1      19.788  -2.342 -14.764  1.00  0.00     0.010 C 
HETATM   34  C   UNL     1      16.267  -3.139 -14.940  1.00  0.00    -0.025 A 
HETATM   35  C   UNL     1      14.517  -1.717 -14.031  1.00  0.00     0.010 A 
HETATM   36  C   UNL     1      15.649  -4.275 -14.409  1.00  0.00     0.010 A 
HETATM   37  C   UNL     1      14.458  -4.137 -13.710  1.00  0.00     0.001 A 
HETATM   38  C   UNL     1      13.911  -2.869 -13.503  1.00  0.00     0.001 A 
HETATM   39 BR   UNL     1      18.324  -4.857 -16.160  1.00  0.00    -0.074 Br
ENDBRANCH  14  17
ENDBRANCH   9  11
ENDBRANCH   8   9
ENDBRANCH   7   8
ENDBRANCH   6   7
ENDBRANCH   5   6
ENDBRANCH   4   5
ENDBRANCH   3   4
ENDBRANCH   2   3
TORSDOF 9
ENDMDL
MODEL 7
REMARK VINA RESULT:      -6.7      2.133      3.255
REMARK  9 active torsions:
REMARK  status: ('A' for Active; 'I' for Inactive)
REMARK    1  A    between atoms: C_2  and  C_3 
REMARK    2  A    between atoms: C_3  and  C_4 
REMARK    3  A    between atoms: C_4  and  C_5 
REMARK    4  A    between atoms: C_5  and  C_6 
REMARK    5  A    between atoms: C_6  and  C_7 
REMARK    6  A    between atoms: C_7  and  O_8 
REMARK    7  A    between atoms: O_8  and  C_9 
REMARK    8  A    between atoms: C_9  and  C_11 
REMARK    9  A    between atoms: C_14  and  N_17 
ROOT
HETATM    1  C   UNL     1      11.187  -3.099 -23.103  1.00  0.00     0.005 C 
HETATM    2  C   UNL     1      12.127  -3.945 -22.256  1.00  0.00    -0.005 C 
ENDROOT
BRANCH   2   3
HETATM    3  C   UNL     1      13.530  -4.039 -22.863  1.00  0.00    -0.000 C 
BRANCH   3   4
HETATM    4  C   UNL     1      13.501  -4.717 -24.243  1.00  0.00     0.000 C 
BRANCH   4   5
HETATM    5  C   UNL     1      12.693  -6.015 -24.212  1.00  0.00     0.002 C 
BRANCH   5   6
HETATM    6  C   UNL     1      13.415  -7.208 -24.864  1.00  0.00     0.027 C 
BRANCH   6   7
HETATM    7  C   UNL     1      14.887  -7.197 -24.450  1.00  0.00     0.179 C 
BRANCH   7   8
HETATM    8  O   UNL     1      15.324  -8.377 -23.755  1.00  0.00    -0.318 OA
BRANCH   8   9
HETATM    9  C   UNL     1      14.700  -8.637 -22.573  1.00  0.00     0.293 C 
HETATM   10  O   UNL     1      14.225  -9.703 -22.245  1.00  0.00    -0.259 OA
BRANCH   9  11
HETATM   11  C   UNL     1      14.848  -7.492 -21.635  1.00  0.00     0.039 A 
HETATM   12  C   UNL     1      16.078  -6.876 -21.469  1.00  0.00     0.020 A 
HETATM   13  C   UNL     1      16.243  -5.876 -20.489  1.00  0.00     0.031 A 
HETATM   14  C   UNL     1      15.206  -5.495 -19.610  1.00  0.00     0.045 A 
HETATM   15  C   UNL     1      13.982  -6.148 -19.769  1.00  0.00     0.031 A 
HETATM   16  C   UNL     1      13.802  -7.130 -20.772  1.00  0.00     0.020 A 
BRANCH  14  17
HETATM   17  N   UNL     1      15.427  -4.470 -18.645  1.00  0.00    -0.252 N 
HETATM   18  C   UNL     1      15.942  -4.740 -17.394  1.00  0.00     0.238 C 
HETATM   19  O   UNL     1      15.887  -5.762 -16.736  1.00  0.00    -0.272 OA
HETATM   20  C   UNL     1      16.524  -3.432 -16.938  1.00  0.00     0.122 C 
HETATM   21  C   UNL     1      15.300  -2.565 -17.278  1.00  0.00     0.122 C 
HETATM   22  C   UNL     1      16.993  -3.312 -15.494  1.00  0.00     0.086 C 
HETATM   23  C   UNL     1      15.266  -3.072 -18.752  1.00  0.00     0.238 C 
HETATM   24  C   UNL     1      14.811  -1.879 -15.947  1.00  0.00     0.086 C 
HETATM   25  O   UNL     1      15.245  -2.382 -19.755  1.00  0.00    -0.272 OA
HETATM   26  C   UNL     1      15.963  -1.048 -15.361  1.00  0.00    -0.025 C 
HETATM   27  C   UNL     1      14.615  -3.038 -14.885  1.00  0.00    -0.025 A 
HETATM   28 BR   UNL     1      13.197  -0.845 -16.259  1.00  0.00    -0.074 Br
HETATM   29  C   UNL     1      15.877   0.237 -14.814  1.00  0.00     0.010 C 
HETATM   30  C   UNL     1      17.171  -1.800 -15.207  1.00  0.00    -0.025 C 
HETATM   31  C   UNL     1      17.006   0.823 -14.240  1.00  0.00     0.001 C 
HETATM   32  C   UNL     1      18.221   0.137 -14.213  1.00  0.00     0.001 C 
HETATM   33  C   UNL     1      18.306  -1.176 -14.682  1.00  0.00     0.010 C 
HETATM   34  C   UNL     1      15.817  -3.797 -14.648  1.00  0.00    -0.025 A 
HETATM   35  C   UNL     1      13.458  -3.408 -14.206  1.00  0.00     0.010 A 
HETATM   36  C   UNL     1      15.810  -4.920 -13.816  1.00  0.00     0.010 A 
HETATM   37  C   UNL     1      14.628  -5.300 -13.197  1.00  0.00     0.001 A 
HETATM   38  C   UNL     1      13.470  -4.538 -13.372  1.00  0.00     0.001 A 
HETATM   39 BR   UNL     1      18.640  -4.325 -15.300  1.00  0.00    -0.074 Br
ENDBRANCH  14  17
ENDBRANCH   9  11
ENDBRANCH   8   9
ENDBRANCH   7   8
ENDBRANCH   6   7
ENDBRANCH   5   6
ENDBRANCH   4   5
ENDBRANCH   3   4
ENDBRANCH   2   3
TORSDOF 9
ENDMDL
MODEL 8
REMARK VINA RESULT:      -6.7      2.770      4.302
REMARK  9 active torsions:
REMARK  status: ('A' for Active; 'I' for Inactive)
REMARK    1  A    between atoms: C_2  and  C_3 
REMARK    2  A    between atoms: C_3  and  C_4 
REMARK    3  A    between atoms: C_4  and  C_5 
REMARK    4  A    between atoms: C_5  and  C_6 
REMARK    5  A    between atoms: C_6  and  C_7 
REMARK    6  A    between atoms: C_7  and  O_8 
REMARK    7  A    between atoms: O_8  and  C_9 
REMARK    8  A    between atoms: C_9  and  C_11 
REMARK    9  A    between atoms: C_14  and  N_17 
ROOT
HETATM    1  C   UNL     1      18.152 -10.519 -17.129  1.00  0.00     0.005 C 
HETATM    2  C   UNL     1      17.297  -9.320 -16.742  1.00  0.00    -0.005 C 
ENDROOT
BRANCH   2   3
HETATM    3  C   UNL     1      16.607  -8.684 -17.952  1.00  0.00    -0.000 C 
BRANCH   3   4
HETATM    4  C   UNL     1      15.230  -9.316 -18.211  1.00  0.00     0.000 C 
BRANCH   4   5
HETATM    5  C   UNL     1      15.291 -10.346 -19.341  1.00  0.00     0.002 C 
BRANCH   5   6
HETATM    6  C   UNL     1      13.940 -10.570 -20.045  1.00  0.00     0.027 C 
BRANCH   6   7
HETATM    7  C   UNL     1      14.145 -10.530 -21.559  1.00  0.00     0.179 C 
BRANCH   7   8
HETATM    8  O   UNL     1      13.645  -9.344 -22.201  1.00  0.00    -0.318 OA
BRANCH   8   9
HETATM    9  C   UNL     1      14.582  -8.437 -22.589  1.00  0.00     0.293 C 
HETATM   10  O   UNL     1      15.026  -8.315 -23.710  1.00  0.00    -0.259 OA
BRANCH   9  11
HETATM   11  C   UNL     1      14.858  -7.463 -21.497  1.00  0.00     0.039 A 
HETATM   12  C   UNL     1      13.816  -6.918 -20.765  1.00  0.00     0.020 A 
HETATM   13  C   UNL     1      14.070  -5.904 -19.819  1.00  0.00     0.031 A 
HETATM   14  C   UNL     1      15.358  -5.365 -19.610  1.00  0.00     0.045 A 
HETATM   15  C   UNL     1      16.392  -5.904 -20.379  1.00  0.00     0.031 A 
HETATM   16  C   UNL     1      16.148  -6.943 -21.308  1.00  0.00     0.020 A 
BRANCH  14  17
HETATM   17  N   UNL     1      15.558  -4.349 -18.632  1.00  0.00    -0.252 N 
HETATM   18  C   UNL     1      16.060  -4.629 -17.377  1.00  0.00     0.238 C 
HETATM   19  O   UNL     1      16.006  -5.658 -16.732  1.00  0.00    -0.272 OA
HETATM   20  C   UNL     1      16.625  -3.321 -16.899  1.00  0.00     0.122 C 
HETATM   21  C   UNL     1      15.399  -2.461 -17.245  1.00  0.00     0.122 C 
HETATM   22  C   UNL     1      17.075  -3.214 -15.448  1.00  0.00     0.086 C 
HETATM   23  C   UNL     1      15.387  -2.951 -18.725  1.00  0.00     0.238 C 
HETATM   24  C   UNL     1      14.887  -1.793 -15.912  1.00  0.00     0.086 C 
HETATM   25  O   UNL     1      15.373  -2.250 -19.721  1.00  0.00    -0.272 OA
HETATM   26  C   UNL     1      16.025  -0.960 -15.303  1.00  0.00    -0.025 C 
HETATM   27  C   UNL     1      14.688  -2.966 -14.867  1.00  0.00    -0.025 A 
HETATM   28 BR   UNL     1      13.268  -0.769 -16.233  1.00  0.00    -0.074 Br
HETATM   29  C   UNL     1      15.922   0.318 -14.742  1.00  0.00     0.010 C 
HETATM   30  C   UNL     1      17.238  -1.703 -15.143  1.00  0.00    -0.025 C 
HETATM   31  C   UNL     1      17.038   0.907 -14.149  1.00  0.00     0.001 C 
HETATM   32  C   UNL     1      18.258   0.231 -14.114  1.00  0.00     0.001 C 
HETATM   33  C   UNL     1      18.360  -1.076 -14.596  1.00  0.00     0.010 C 
HETATM   34  C   UNL     1      15.893  -3.717 -14.623  1.00  0.00    -0.025 A 
HETATM   35  C   UNL     1      13.526  -3.354 -14.206  1.00  0.00     0.010 A 
HETATM   36  C   UNL     1      15.886  -4.850 -13.803  1.00  0.00     0.010 A 
HETATM   37  C   UNL     1      14.699  -5.247 -13.204  1.00  0.00     0.001 A 
HETATM   38  C   UNL     1      13.537  -4.493 -13.385  1.00  0.00     0.001 A 
HETATM   39 BR   UNL     1      18.728  -4.215 -15.245  1.00  0.00    -0.074 Br
ENDBRANCH  14  17
ENDBRANCH   9  11
ENDBRANCH   8   9
ENDBRANCH   7   8
ENDBRANCH   6   7
ENDBRANCH   5   6
ENDBRANCH   4   5
ENDBRANCH   3   4
ENDBRANCH   2   3
TORSDOF 9
ENDMDL
MODEL 9
REMARK VINA RESULT:      -6.6      4.050      7.918
REMARK  9 active torsions:
REMARK  status: ('A' for Active; 'I' for Inactive)
REMARK    1  A    between atoms: C_2  and  C_3 
REMARK    2  A    between atoms: C_3  and  C_4 
REMARK    3  A    between atoms: C_4  and  C_5 
REMARK    4  A    between atoms: C_5  and  C_6 
REMARK    5  A    between atoms: C_6  and  C_7 
REMARK    6  A    between atoms: C_7  and  O_8 
REMARK    7  A    between atoms: O_8  and  C_9 
REMARK    8  A    between atoms: C_9  and  C_11 
REMARK    9  A    between atoms: C_14  and  N_17 
ROOT
HETATM    1  C   UNL     1      23.027  -5.743 -22.005  1.00  0.00     0.005 C 
HETATM    2  C   UNL     1      23.741  -4.402 -21.911  1.00  0.00    -0.005 C 
ENDROOT
BRANCH   2   3
HETATM    3  C   UNL     1      22.772  -3.221 -22.005  1.00  0.00    -0.000 C 
BRANCH   3   4
HETATM    4  C   UNL     1      22.650  -2.484 -20.661  1.00  0.00     0.000 C 
BRANCH   4   5
HETATM    5  C   UNL     1      23.385  -1.142 -20.690  1.00  0.00     0.002 C 
BRANCH   5   6
HETATM    6  C   UNL     1      23.197  -0.365 -22.005  1.00  0.00     0.027 C 
BRANCH   6   7
HETATM    7  C   UNL     1      23.288   1.135 -21.724  1.00  0.00     0.179 C 
BRANCH   7   8
HETATM    8  O   UNL     1      22.457   1.595 -20.644  1.00  0.00    -0.318 OA
BRANCH   8   9
HETATM    9  C   UNL     1      21.185   1.943 -20.978  1.00  0.00     0.293 C 
HETATM   10  O   UNL     1      20.866   2.917 -21.625  1.00  0.00    -0.259 OA
BRANCH   9  11
HETATM   11  C   UNL     1      20.229   0.861 -20.617  1.00  0.00     0.039 A 
HETATM   12  C   UNL     1      20.045   0.502 -19.292  1.00  0.00     0.020 A 
HETATM   13  C   UNL     1      19.236  -0.606 -18.964  1.00  0.00     0.031 A 
HETATM   14  C   UNL     1      18.630  -1.420 -19.944  1.00  0.00     0.045 A 
HETATM   15  C   UNL     1      18.851  -1.064 -21.276  1.00  0.00     0.031 A 
HETATM   16  C   UNL     1      19.636   0.065 -21.610  1.00  0.00     0.020 A 
BRANCH  14  17
HETATM   17  N   UNL     1      17.813  -2.521 -19.554  1.00  0.00    -0.252 N 
HETATM   18  C   UNL     1      16.447  -2.399 -19.398  1.00  0.00     0.238 C 
HETATM   19  O   UNL     1      15.782  -1.420 -19.119  1.00  0.00    -0.272 OA
HETATM   20  C   UNL     1      15.927  -3.801 -19.546  1.00  0.00     0.122 C 
HETATM   21  C   UNL     1      16.924  -4.463 -18.581  1.00  0.00     0.122 C 
HETATM   22  C   UNL     1      14.465  -4.070 -19.215  1.00  0.00     0.086 C 
HETATM   23  C   UNL     1      18.153  -3.873 -19.336  1.00  0.00     0.238 C 
HETATM   24  C   UNL     1      16.096  -5.149 -17.428  1.00  0.00     0.086 C 
HETATM   25  O   UNL     1      19.113  -4.494 -19.755  1.00  0.00    -0.272 OA
HETATM   26  C   UNL     1      15.127  -6.168 -18.047  1.00  0.00    -0.025 C 
HETATM   27  C   UNL     1      15.135  -4.037 -16.838  1.00  0.00    -0.025 A 
HETATM   28 BR   UNL     1      17.280  -5.922 -16.097  1.00  0.00    -0.074 Br
HETATM   29  C   UNL     1      14.851  -7.457 -17.578  1.00  0.00     0.010 C 
HETATM   30  C   UNL     1      14.313  -5.606 -19.082  1.00  0.00    -0.025 C 
HETATM   31  C   UNL     1      13.875  -8.230 -18.207  1.00  0.00     0.001 C 
HETATM   32  C   UNL     1      13.175  -7.727 -19.304  1.00  0.00     0.001 C 
HETATM   33  C   UNL     1      13.379  -6.415 -19.736  1.00  0.00     0.010 C 
HETATM   34  C   UNL     1      14.250  -3.472 -17.826  1.00  0.00    -0.025 A 
HETATM   35  C   UNL     1      15.069  -3.544 -15.538  1.00  0.00     0.010 A 
HETATM   36  C   UNL     1      13.399  -2.409 -17.511  1.00  0.00     0.010 A 
HETATM   37  C   UNL     1      13.396  -1.900 -16.220  1.00  0.00     0.001 A 
HETATM   38  C   UNL     1      14.206  -2.478 -15.239  1.00  0.00     0.001 A 
HETATM   39 BR   UNL     1      13.369  -3.315 -20.632  1.00  0.00    -0.074 Br
ENDBRANCH  14  17
ENDBRANCH   9  11
ENDBRANCH   8   9
ENDBRANCH   7   8
ENDBRANCH   6   7
ENDBRANCH   5   6
ENDBRANCH   4   5
ENDBRANCH   3   4
ENDBRANCH   2   3
TORSDOF 9
ENDMDL
