MODEL 1
REMARK VINA RESULT:      -8.4      0.000      0.000
REMARK  4 active torsions:
REMARK  status: ('A' for Active; 'I' for Inactive)
REMARK    1  A    between atoms: C_2  and  C_3 
REMARK    2  A    between atoms: C_6  and  C_22 
REMARK    3  A    between atoms: C_8  and  S_9 
REMARK    4  A    between atoms: S_9  and  N_12 
ROOT
HETATM    1  C   UNL     1      15.540  -0.824 -14.475  1.00  0.00     0.010 C 
HETATM    2  C   UNL     1      14.147  -1.442 -14.577  1.00  0.00     0.035 C 
ENDROOT
BRANCH   2   3
HETATM    3  C   UNL     1      14.214  -2.833 -15.163  1.00  0.00    -0.036 C 
HETATM    4  C   UNL     1      14.522  -3.891 -14.286  1.00  0.00     0.009 C 
HETATM    5  C   UNL     1      14.851  -5.164 -14.767  1.00  0.00     0.014 C 
HETATM    6  C   UNL     1      14.840  -5.418 -16.140  1.00  0.00    -0.006 C 
HETATM    7  C   UNL     1      14.333  -4.435 -16.991  1.00  0.00     0.039 C 
HETATM    8  C   UNL     1      14.084  -3.131 -16.531  1.00  0.00     0.082 C 
BRANCH   6   9
HETATM    9  C   UNL     1      15.414  -6.712 -16.645  1.00  0.00     0.065 A 
HETATM   10  C   UNL     1      14.962  -7.261 -17.973  1.00  0.00    -0.017 A 
HETATM   11  C   UNL     1      13.972  -6.556 -18.870  1.00  0.00     0.042 C 
HETATM   12  C   UNL     1      15.531  -8.418 -18.356  1.00  0.00     0.020 A 
HETATM   13  C   UNL     1      13.908  -7.092 -20.302  1.00  0.00     0.005 C 
HETATM   14  C   UNL     1      13.895  -8.610 -20.286  1.00  0.00     0.005 C 
HETATM   15  C   UNL     1      15.175  -9.137 -19.636  1.00  0.00     0.045 C 
HETATM   16  C   UNL     1      16.580  -9.072 -17.529  1.00  0.00     0.268 A 
HETATM   17  O   UNL     1      17.101 -10.116 -17.917  1.00  0.00    -0.266 OA
HETATM   18  N   UNL     1      16.913  -8.428 -16.349  1.00  0.00    -0.261 N 
HETATM   19  C   UNL     1      17.933  -8.987 -15.479  1.00  0.00     0.181 C 
HETATM   20  N   UNL     1      16.332  -7.266 -15.912  1.00  0.00    -0.295 N 
HETATM   21  HN  UNL     1      16.615  -6.845 -15.027  1.00  0.00     0.187 HD
ENDBRANCH   6   9
BRANCH   8  22
HETATM   22  S   UNL     1      13.808  -1.885 -17.792  1.00  0.00     0.244 S 
HETATM   23  O   UNL     1      12.461  -1.379 -17.625  1.00  0.00    -0.206 OA
HETATM   24  O   UNL     1      14.932  -0.969 -17.767  1.00  0.00    -0.206 OA
BRANCH  22  25
HETATM   25  N   UNL     1      13.893  -2.726 -19.265  1.00  0.00    -0.202 NA
HETATM   26  C   UNL     1      15.122  -2.506 -20.072  1.00  0.00     0.112 C 
HETATM   27  C   UNL     1      15.212  -3.614 -21.124  1.00  0.00     0.054 C 
HETATM   28  C   UNL     1      13.958  -3.689 -21.959  1.00  0.00    -0.050 A 
HETATM   29  C   UNL     1      13.981  -4.327 -23.208  1.00  0.00     0.007 A 
HETATM   30  C   UNL     1      12.750  -3.158 -21.469  1.00  0.00    -0.038 A 
HETATM   31  C   UNL     1      12.825  -4.390 -23.986  1.00  0.00     0.001 A 
HETATM   32  C   UNL     1      11.641  -3.822 -23.526  1.00  0.00     0.001 A 
HETATM   33  C   UNL     1      11.602  -3.210 -22.272  1.00  0.00     0.009 A 
HETATM   34  C   UNL     1      12.681  -2.496 -20.107  1.00  0.00     0.146 C 
ENDBRANCH  22  25
ENDBRANCH   8  22
ENDBRANCH   2   3
TORSDOF 4
ENDMDL
MODEL 2
REMARK VINA RESULT:      -8.2      3.493      6.029
REMARK  4 active torsions:
REMARK  status: ('A' for Active; 'I' for Inactive)
REMARK    1  A    between atoms: C_2  and  C_3 
REMARK    2  A    between atoms: C_6  and  C_22 
REMARK    3  A    between atoms: C_8  and  S_9 
REMARK    4  A    between atoms: S_9  and  N_12 
ROOT
HETATM    1  C   UNL     1      11.565   0.154 -18.500  1.00  0.00     0.010 C 
HETATM    2  C   UNL     1      12.054  -1.255 -18.167  1.00  0.00     0.035 C 
ENDROOT
BRANCH   2   3
HETATM    3  C   UNL     1      12.653  -1.920 -19.384  1.00  0.00    -0.036 C 
HETATM    4  C   UNL     1      11.765  -2.351 -20.389  1.00  0.00     0.009 C 
HETATM    5  C   UNL     1      12.191  -3.192 -21.425  1.00  0.00     0.014 C 
HETATM    6  C   UNL     1      13.528  -3.588 -21.501  1.00  0.00    -0.006 C 
HETATM    7  C   UNL     1      14.444  -2.994 -20.632  1.00  0.00     0.039 C 
HETATM    8  C   UNL     1      14.018  -2.222 -19.539  1.00  0.00     0.082 C 
BRANCH   6   9
HETATM    9  C   UNL     1      13.913  -4.665 -22.476  1.00  0.00     0.065 A 
HETATM   10  C   UNL     1      14.364  -6.008 -21.965  1.00  0.00    -0.017 A 
HETATM   11  C   UNL     1      14.415  -6.364 -20.497  1.00  0.00     0.042 C 
HETATM   12  C   UNL     1      14.681  -6.919 -22.902  1.00  0.00     0.020 A 
HETATM   13  C   UNL     1      14.562  -7.858 -20.203  1.00  0.00     0.005 C 
HETATM   14  C   UNL     1      15.612  -8.464 -21.119  1.00  0.00     0.005 C 
HETATM   15  C   UNL     1      15.188  -8.304 -22.578  1.00  0.00     0.045 C 
HETATM   16  C   UNL     1      14.540  -6.614 -24.351  1.00  0.00     0.268 A 
HETATM   17  O   UNL     1      14.814  -7.475 -25.185  1.00  0.00    -0.266 OA
HETATM   18  N   UNL     1      14.082  -5.345 -24.664  1.00  0.00    -0.261 N 
HETATM   19  C   UNL     1      13.905  -4.959 -26.053  1.00  0.00     0.181 C 
HETATM   20  N   UNL     1      13.779  -4.382 -23.737  1.00  0.00    -0.295 N 
HETATM   21  HN  UNL     1      13.454  -3.462 -24.032  1.00  0.00     0.187 HD
ENDBRANCH   6   9
BRANCH   8  22
HETATM   22  S   UNL     1      15.260  -1.846 -18.301  1.00  0.00     0.244 S 
HETATM   23  O   UNL     1      15.223  -0.418 -18.058  1.00  0.00    -0.206 OA
HETATM   24  O   UNL     1      15.085  -2.772 -17.198  1.00  0.00    -0.206 OA
BRANCH  22  25
HETATM   25  N   UNL     1      16.741  -2.233 -19.035  1.00  0.00    -0.202 NA
HETATM   26  C   UNL     1      17.799  -2.762 -18.133  1.00  0.00     0.112 C 
HETATM   27  C   UNL     1      18.881  -3.420 -18.993  1.00  0.00     0.054 C 
HETATM   28  C   UNL     1      19.412  -2.470 -20.038  1.00  0.00    -0.050 A 
HETATM   29  C   UNL     1      20.654  -2.711 -20.641  1.00  0.00     0.007 A 
HETATM   30  C   UNL     1      18.643  -1.362 -20.441  1.00  0.00    -0.038 A 
HETATM   31  C   UNL     1      21.152  -1.830 -21.602  1.00  0.00     0.001 A 
HETATM   32  C   UNL     1      20.416  -0.707 -21.967  1.00  0.00     0.001 A 
HETATM   33  C   UNL     1      19.166  -0.474 -21.392  1.00  0.00     0.009 A 
HETATM   34  C   UNL     1      17.279  -1.093 -19.837  1.00  0.00     0.146 C 
ENDBRANCH  22  25
ENDBRANCH   8  22
ENDBRANCH   2   3
TORSDOF 4
ENDMDL
MODEL 3
REMARK VINA RESULT:      -8.2      3.378      5.210
REMARK  4 active torsions:
REMARK  status: ('A' for Active; 'I' for Inactive)
REMARK    1  A    between atoms: C_2  and  C_3 
REMARK    2  A    between atoms: C_6  and  C_22 
REMARK    3  A    between atoms: C_8  and  S_9 
REMARK    4  A    between atoms: S_9  and  N_12 
ROOT
HETATM    1  C   UNL     1      12.730  -0.982 -16.047  1.00  0.00     0.010 C 
HETATM    2  C   UNL     1      13.026  -0.349 -17.406  1.00  0.00     0.035 C 
ENDROOT
BRANCH   2   3
HETATM    3  C   UNL     1      13.446  -1.397 -18.410  1.00  0.00    -0.036 C 
HETATM    4  C   UNL     1      12.452  -2.274 -18.885  1.00  0.00     0.009 C 
HETATM    5  C   UNL     1      12.783  -3.423 -19.615  1.00  0.00     0.014 C 
HETATM    6  C   UNL     1      14.117  -3.698 -19.921  1.00  0.00    -0.006 C 
HETATM    7  C   UNL     1      15.076  -2.725 -19.635  1.00  0.00     0.039 C 
HETATM    8  C   UNL     1      14.771  -1.616 -18.829  1.00  0.00     0.082 C 
BRANCH   6   9
HETATM    9  C   UNL     1      14.469  -5.040 -20.499  1.00  0.00     0.065 A 
HETATM   10  C   UNL     1      14.293  -5.287 -21.974  1.00  0.00    -0.017 A 
HETATM   11  C   UNL     1      13.811  -4.231 -22.942  1.00  0.00     0.042 C 
HETATM   12  C   UNL     1      14.639  -6.510 -22.412  1.00  0.00     0.020 A 
HETATM   13  C   UNL     1      14.027  -4.567 -24.419  1.00  0.00     0.005 C 
HETATM   14  C   UNL     1      13.630  -6.009 -24.685  1.00  0.00     0.005 C 
HETATM   15  C   UNL     1      14.495  -6.951 -23.850  1.00  0.00     0.045 C 
HETATM   16  C   UNL     1      15.209  -7.527 -21.488  1.00  0.00     0.268 A 
HETATM   17  O   UNL     1      15.540  -8.629 -21.921  1.00  0.00    -0.266 OA
HETATM   18  N   UNL     1      15.341  -7.139 -20.165  1.00  0.00    -0.261 N 
HETATM   19  C   UNL     1      15.895  -8.062 -19.189  1.00  0.00     0.181 C 
HETATM   20  N   UNL     1      14.970  -5.913 -19.677  1.00  0.00    -0.295 N 
HETATM   21  HN  UNL     1      15.084  -5.691 -18.689  1.00  0.00     0.187 HD
ENDBRANCH   6   9
BRANCH   8  22
HETATM   22  S   UNL     1      16.168  -0.663 -18.230  1.00  0.00     0.244 S 
HETATM   23  O   UNL     1      16.038   0.684 -18.748  1.00  0.00    -0.206 OA
HETATM   24  O   UNL     1      16.274  -0.880 -16.800  1.00  0.00    -0.206 OA
BRANCH  22  25
HETATM   25  N   UNL     1      17.529  -1.388 -18.939  1.00  0.00    -0.202 NA
HETATM   26  C   UNL     1      18.686  -1.628 -18.035  1.00  0.00     0.112 C 
HETATM   27  C   UNL     1      19.629  -2.624 -18.714  1.00  0.00     0.054 C 
HETATM   28  C   UNL     1      20.037  -2.153 -20.088  1.00  0.00    -0.050 A 
HETATM   29  C   UNL     1      21.182  -2.679 -20.702  1.00  0.00     0.007 A 
HETATM   30  C   UNL     1      19.245  -1.215 -20.777  1.00  0.00    -0.038 A 
HETATM   31  C   UNL     1      21.566  -2.239 -21.969  1.00  0.00     0.001 A 
HETATM   32  C   UNL     1      20.812  -1.275 -22.632  1.00  0.00     0.001 A 
HETATM   33  C   UNL     1      19.655  -0.766 -22.041  1.00  0.00     0.009 A 
HETATM   34  C   UNL     1      17.979  -0.653 -20.159  1.00  0.00     0.146 C 
ENDBRANCH  22  25
ENDBRANCH   8  22
ENDBRANCH   2   3
TORSDOF 4
ENDMDL
MODEL 4
REMARK VINA RESULT:      -8.0      1.709      2.406
REMARK  4 active torsions:
REMARK  status: ('A' for Active; 'I' for Inactive)
REMARK    1  A    between atoms: C_2  and  C_3 
REMARK    2  A    between atoms: C_6  and  C_22 
REMARK    3  A    between atoms: C_8  and  S_9 
REMARK    4  A    between atoms: S_9  and  N_12 
ROOT
HETATM    1  C   UNL     1      15.424  -1.248 -14.492  1.00  0.00     0.010 C 
HETATM    2  C   UNL     1      13.996  -1.791 -14.525  1.00  0.00     0.035 C 
ENDROOT
BRANCH   2   3
HETATM    3  C   UNL     1      13.905  -3.019 -15.400  1.00  0.00    -0.036 C 
HETATM    4  C   UNL     1      14.156  -4.266 -14.794  1.00  0.00     0.009 C 
HETATM    5  C   UNL     1      14.342  -5.423 -15.560  1.00  0.00     0.014 C 
HETATM    6  C   UNL     1      14.238  -5.366 -16.952  1.00  0.00    -0.006 C 
HETATM    7  C   UNL     1      13.784  -4.182 -17.533  1.00  0.00     0.039 C 
HETATM    8  C   UNL     1      13.680  -2.996 -16.788  1.00  0.00     0.082 C 
BRANCH   6   9
HETATM    9  C   UNL     1      14.665  -6.558 -17.762  1.00  0.00     0.065 A 
HETATM   10  C   UNL     1      15.941  -6.500 -18.560  1.00  0.00    -0.017 A 
HETATM   11  C   UNL     1      16.865  -5.304 -18.564  1.00  0.00     0.042 C 
HETATM   12  C   UNL     1      16.256  -7.611 -19.249  1.00  0.00     0.020 A 
HETATM   13  C   UNL     1      18.255  -5.567 -19.148  1.00  0.00     0.005 C 
HETATM   14  C   UNL     1      18.133  -6.376 -20.428  1.00  0.00     0.005 C 
HETATM   15  C   UNL     1      17.476  -7.724 -20.134  1.00  0.00     0.045 C 
HETATM   16  C   UNL     1      15.408  -8.830 -19.174  1.00  0.00     0.268 A 
HETATM   17  O   UNL     1      15.733  -9.840 -19.797  1.00  0.00    -0.266 OA
HETATM   18  N   UNL     1      14.282  -8.740 -18.373  1.00  0.00    -0.261 N 
HETATM   19  C   UNL     1      13.397  -9.882 -18.231  1.00  0.00     0.181 C 
HETATM   20  N   UNL     1      13.914  -7.615 -17.681  1.00  0.00    -0.295 N 
HETATM   21  HN  UNL     1      13.067  -7.609 -17.113  1.00  0.00     0.187 HD
ENDBRANCH   6   9
BRANCH   8  22
HETATM   22  S   UNL     1      13.458  -1.485 -17.728  1.00  0.00     0.244 S 
HETATM   23  O   UNL     1      12.426  -0.706 -17.074  1.00  0.00    -0.206 OA
HETATM   24  O   UNL     1      14.768  -0.904 -17.954  1.00  0.00    -0.206 OA
BRANCH  22  25
HETATM   25  N   UNL     1      12.879  -1.992 -19.241  1.00  0.00    -0.202 NA
HETATM   26  C   UNL     1      11.597  -2.747 -19.230  1.00  0.00     0.112 C 
HETATM   27  C   UNL     1      11.036  -2.764 -20.654  1.00  0.00     0.054 C 
HETATM   28  C   UNL     1      12.038  -3.311 -21.639  1.00  0.00    -0.050 A 
HETATM   29  C   UNL     1      11.611  -3.791 -22.885  1.00  0.00     0.007 A 
HETATM   30  C   UNL     1      13.411  -3.300 -21.329  1.00  0.00    -0.038 A 
HETATM   31  C   UNL     1      12.535  -4.305 -23.795  1.00  0.00     0.001 A 
HETATM   32  C   UNL     1      13.888  -4.341 -23.471  1.00  0.00     0.001 A 
HETATM   33  C   UNL     1      14.326  -3.839 -22.245  1.00  0.00     0.009 A 
HETATM   34  C   UNL     1      13.912  -2.752 -20.007  1.00  0.00     0.146 C 
ENDBRANCH  22  25
ENDBRANCH   8  22
ENDBRANCH   2   3
TORSDOF 4
ENDMDL
MODEL 5
REMARK VINA RESULT:      -8.0      1.671      2.716
REMARK  4 active torsions:
REMARK  status: ('A' for Active; 'I' for Inactive)
REMARK    1  A    between atoms: C_2  and  C_3 
REMARK    2  A    between atoms: C_6  and  C_22 
REMARK    3  A    between atoms: C_8  and  S_9 
REMARK    4  A    between atoms: S_9  and  N_12 
ROOT
HETATM    1  C   UNL     1      13.820  -3.610 -12.855  1.00  0.00     0.010 C 
HETATM    2  C   UNL     1      14.023  -3.229 -14.321  1.00  0.00     0.035 C 
ENDROOT
BRANCH   2   3
HETATM    3  C   UNL     1      13.827  -4.426 -15.221  1.00  0.00    -0.036 C 
HETATM    4  C   UNL     1      13.782  -5.695 -14.612  1.00  0.00     0.009 C 
HETATM    5  C   UNL     1      13.855  -6.870 -15.370  1.00  0.00     0.014 C 
HETATM    6  C   UNL     1      13.933  -6.800 -16.763  1.00  0.00    -0.006 C 
HETATM    7  C   UNL     1      13.765  -5.558 -17.374  1.00  0.00     0.039 C 
HETATM    8  C   UNL     1      13.779  -4.369 -16.626  1.00  0.00     0.082 C 
BRANCH   6   9
HETATM    9  C   UNL     1      14.241  -8.052 -17.537  1.00  0.00     0.065 A 
HETATM   10  C   UNL     1      15.561  -8.748 -17.335  1.00  0.00    -0.017 A 
HETATM   11  C   UNL     1      16.605  -8.280 -16.349  1.00  0.00     0.042 C 
HETATM   12  C   UNL     1      15.754  -9.865 -18.058  1.00  0.00     0.020 A 
HETATM   13  C   UNL     1      17.706  -9.298 -16.047  1.00  0.00     0.005 C 
HETATM   14  C   UNL     1      18.185  -9.940 -17.338  1.00  0.00     0.005 C 
HETATM   15  C   UNL     1      17.030 -10.674 -18.016  1.00  0.00     0.045 C 
HETATM   16  C   UNL     1      14.694 -10.393 -18.959  1.00  0.00     0.268 A 
HETATM   17  O   UNL     1      14.890 -11.430 -19.589  1.00  0.00    -0.266 OA
HETATM   18  N   UNL     1      13.521  -9.659 -19.013  1.00  0.00    -0.261 N 
HETATM   19  C   UNL     1      12.426 -10.100 -19.859  1.00  0.00     0.181 C 
HETATM   20  N   UNL     1      13.302  -8.500 -18.315  1.00  0.00    -0.295 N 
HETATM   21  HN  UNL     1      12.417  -8.000 -18.404  1.00  0.00     0.187 HD
ENDBRANCH   6   9
BRANCH   8  22
HETATM   22  S   UNL     1      13.939  -2.846 -17.560  1.00  0.00     0.244 S 
HETATM   23  O   UNL     1      12.750  -2.053 -17.318  1.00  0.00    -0.206 OA
HETATM   24  O   UNL     1      15.248  -2.288 -17.281  1.00  0.00    -0.206 OA
BRANCH  22  25
HETATM   25  N   UNL     1      13.947  -3.329 -19.187  1.00  0.00    -0.202 NA
HETATM   26  C   UNL     1      15.098  -2.857 -20.002  1.00  0.00     0.112 C 
HETATM   27  C   UNL     1      15.157  -3.694 -21.283  1.00  0.00     0.054 C 
HETATM   28  C   UNL     1      13.847  -3.659 -22.029  1.00  0.00    -0.050 A 
HETATM   29  C   UNL     1      13.801  -3.998 -23.388  1.00  0.00     0.007 A 
HETATM   30  C   UNL     1      12.657  -3.327 -21.353  1.00  0.00    -0.038 A 
HETATM   31  C   UNL     1      12.592  -3.958 -24.083  1.00  0.00     0.001 A 
HETATM   32  C   UNL     1      11.423  -3.583 -23.429  1.00  0.00     0.001 A 
HETATM   33  C   UNL     1      11.453  -3.271 -22.069  1.00  0.00     0.009 A 
HETATM   34  C   UNL     1      12.664  -2.993 -19.873  1.00  0.00     0.146 C 
ENDBRANCH  22  25
ENDBRANCH   8  22
ENDBRANCH   2   3
TORSDOF 4
ENDMDL
MODEL 6
REMARK VINA RESULT:      -7.9      8.115     10.878
REMARK  4 active torsions:
REMARK  status: ('A' for Active; 'I' for Inactive)
REMARK    1  A    between atoms: C_2  and  C_3 
REMARK    2  A    between atoms: C_6  and  C_22 
REMARK    3  A    between atoms: C_8  and  S_9 
REMARK    4  A    between atoms: S_9  and  N_12 
ROOT
HETATM    1  C   UNL     1      16.365  -6.131 -29.681  1.00  0.00     0.010 C 
HETATM    2  C   UNL     1      16.023  -6.225 -28.195  1.00  0.00     0.035 C 
ENDROOT
BRANCH   2   3
HETATM    3  C   UNL     1      15.808  -7.662 -27.781  1.00  0.00    -0.036 C 
HETATM    4  C   UNL     1      16.918  -8.526 -27.840  1.00  0.00     0.009 C 
HETATM    5  C   UNL     1      16.769  -9.913 -27.720  1.00  0.00     0.014 C 
HETATM    6  C   UNL     1      15.506 -10.465 -27.496  1.00  0.00    -0.006 C 
HETATM    7  C   UNL     1      14.444  -9.600 -27.228  1.00  0.00     0.039 C 
HETATM    8  C   UNL     1      14.563  -8.215 -27.432  1.00  0.00     0.082 C 
BRANCH   6   9
HETATM    9  C   UNL     1      15.334 -11.954 -27.599  1.00  0.00     0.065 A 
HETATM   10  C   UNL     1      15.510 -12.635 -28.932  1.00  0.00    -0.017 A 
HETATM   11  C   UNL     1      15.899 -11.902 -30.194  1.00  0.00     0.042 C 
HETATM   12  C   UNL     1      15.349 -13.970 -28.937  1.00  0.00     0.020 A 
HETATM   13  C   UNL     1      16.360 -12.801 -31.343  1.00  0.00     0.005 C 
HETATM   14  C   UNL     1      15.427 -13.993 -31.472  1.00  0.00     0.005 C 
HETATM   15  C   UNL     1      15.449 -14.815 -30.185  1.00  0.00     0.045 C 
HETATM   16  C   UNL     1      15.064 -14.717 -27.683  1.00  0.00     0.268 A 
HETATM   17  O   UNL     1      14.945 -15.940 -27.714  1.00  0.00    -0.266 OA
HETATM   18  N   UNL     1      14.962 -13.954 -26.531  1.00  0.00    -0.261 N 
HETATM   19  C   UNL     1      14.694 -14.596 -25.256  1.00  0.00     0.181 C 
HETATM   20  N   UNL     1      15.090 -12.590 -26.493  1.00  0.00    -0.295 N 
HETATM   21  HN  UNL     1      14.995 -12.084 -25.613  1.00  0.00     0.187 HD
ENDBRANCH   6   9
BRANCH   8  22
HETATM   22  S   UNL     1      13.033  -7.278 -27.421  1.00  0.00     0.244 S 
HETATM   23  O   UNL     1      13.049  -6.394 -28.568  1.00  0.00    -0.206 OA
HETATM   24  O   UNL     1      11.939  -8.214 -27.245  1.00  0.00    -0.206 OA
BRANCH  22  25
HETATM   25  N   UNL     1      13.106  -6.337 -26.009  1.00  0.00    -0.202 NA
HETATM   26  C   UNL     1      13.353  -4.884 -26.206  1.00  0.00     0.112 C 
HETATM   27  C   UNL     1      12.990  -4.154 -24.911  1.00  0.00     0.054 C 
HETATM   28  C   UNL     1      13.727  -4.727 -23.726  1.00  0.00    -0.050 A 
HETATM   29  C   UNL     1      13.864  -3.974 -22.551  1.00  0.00     0.007 A 
HETATM   30  C   UNL     1      14.243  -6.035 -23.780  1.00  0.00    -0.038 A 
HETATM   31  C   UNL     1      14.552  -4.498 -21.456  1.00  0.00     0.001 A 
HETATM   32  C   UNL     1      15.106  -5.773 -21.525  1.00  0.00     0.001 A 
HETATM   33  C   UNL     1      14.951  -6.540 -22.680  1.00  0.00     0.009 A 
HETATM   34  C   UNL     1      14.080  -6.891 -25.021  1.00  0.00     0.146 C 
ENDBRANCH  22  25
ENDBRANCH   8  22
ENDBRANCH   2   3
TORSDOF 4
ENDMDL
MODEL 7
REMARK VINA RESULT:      -7.9      3.019      5.655
REMARK  4 active torsions:
REMARK  status: ('A' for Active; 'I' for Inactive)
REMARK    1  A    between atoms: C_2  and  C_3 
REMARK    2  A    between atoms: C_6  and  C_22 
REMARK    3  A    between atoms: C_8  and  S_9 
REMARK    4  A    between atoms: S_9  and  N_12 
ROOT
HETATM    1  C   UNL     1      18.258  -9.922 -15.810  1.00  0.00     0.010 C 
HETATM    2  C   UNL     1      17.473  -8.612 -15.816  1.00  0.00     0.035 C 
ENDROOT
BRANCH   2   3
HETATM    3  C   UNL     1      16.640  -8.488 -17.071  1.00  0.00    -0.036 C 
HETATM    4  C   UNL     1      17.039  -9.244 -18.190  1.00  0.00     0.009 C 
HETATM    5  C   UNL     1      16.492  -9.012 -19.458  1.00  0.00     0.014 C 
HETATM    6  C   UNL     1      15.501  -8.043 -19.626  1.00  0.00    -0.006 C 
HETATM    7  C   UNL     1      14.959  -7.445 -18.488  1.00  0.00     0.039 C 
HETATM    8  C   UNL     1      15.557  -7.604 -17.227  1.00  0.00     0.082 C 
BRANCH   6   9
HETATM    9  C   UNL     1      15.096  -7.651 -21.020  1.00  0.00     0.065 A 
HETATM   10  C   UNL     1      14.897  -6.197 -21.359  1.00  0.00    -0.017 A 
HETATM   11  C   UNL     1      15.126  -5.075 -20.373  1.00  0.00     0.042 C 
HETATM   12  C   UNL     1      14.545  -5.931 -22.629  1.00  0.00     0.020 A 
HETATM   13  C   UNL     1      15.208  -3.680 -20.994  1.00  0.00     0.005 C 
HETATM   14  C   UNL     1      14.104  -3.507 -22.024  1.00  0.00     0.005 C 
HETATM   15  C   UNL     1      14.266  -4.537 -23.141  1.00  0.00     0.045 C 
HETATM   16  C   UNL     1      14.414  -7.018 -23.636  1.00  0.00     0.268 A 
HETATM   17  O   UNL     1      14.114  -6.742 -24.796  1.00  0.00    -0.266 OA
HETATM   18  N   UNL     1      14.660  -8.302 -23.180  1.00  0.00    -0.261 N 
HETATM   19  C   UNL     1      14.564  -9.428 -24.093  1.00  0.00     0.181 C 
HETATM   20  N   UNL     1      14.991  -8.613 -21.887  1.00  0.00    -0.295 N 
HETATM   21  HN  UNL     1      15.151  -9.582 -21.611  1.00  0.00     0.187 HD
ENDBRANCH   6   9
BRANCH   8  22
HETATM   22  S   UNL     1      14.997  -6.490 -15.937  1.00  0.00     0.244 S 
HETATM   23  O   UNL     1      13.852  -7.100 -15.293  1.00  0.00    -0.206 OA
HETATM   24  O   UNL     1      16.152  -6.107 -15.147  1.00  0.00    -0.206 OA
BRANCH  22  25
HETATM   25  N   UNL     1      14.480  -5.096 -16.757  1.00  0.00    -0.202 NA
HETATM   26  C   UNL     1      14.375  -3.859 -15.939  1.00  0.00     0.112 C 
HETATM   27  C   UNL     1      14.298  -2.660 -16.888  1.00  0.00     0.054 C 
HETATM   28  C   UNL     1      13.174  -2.811 -17.883  1.00  0.00    -0.050 A 
HETATM   29  C   UNL     1      12.671  -1.687 -18.552  1.00  0.00     0.007 A 
HETATM   30  C   UNL     1      12.656  -4.087 -18.174  1.00  0.00    -0.038 A 
HETATM   31  C   UNL     1      11.626  -1.822 -19.467  1.00  0.00     0.001 A 
HETATM   32  C   UNL     1      11.079  -3.076 -19.721  1.00  0.00     0.001 A 
HETATM   33  C   UNL     1      11.592  -4.205 -19.080  1.00  0.00     0.009 A 
HETATM   34  C   UNL     1      13.203  -5.328 -17.497  1.00  0.00     0.146 C 
ENDBRANCH  22  25
ENDBRANCH   8  22
ENDBRANCH   2   3
TORSDOF 4
ENDMDL
MODEL 8
REMARK VINA RESULT:      -7.9      3.370      4.542
REMARK  4 active torsions:
REMARK  status: ('A' for Active; 'I' for Inactive)
REMARK    1  A    between atoms: C_2  and  C_3 
REMARK    2  A    between atoms: C_6  and  C_22 
REMARK    3  A    between atoms: C_8  and  S_9 
REMARK    4  A    between atoms: S_9  and  N_12 
ROOT
HETATM    1  C   UNL     1      12.270  -0.690 -16.380  1.00  0.00     0.010 C 
HETATM    2  C   UNL     1      13.387  -0.451 -17.394  1.00  0.00     0.035 C 
ENDROOT
BRANCH   2   3
HETATM    3  C   UNL     1      13.992  -1.758 -17.850  1.00  0.00    -0.036 C 
HETATM    4  C   UNL     1      13.145  -2.883 -17.893  1.00  0.00     0.009 C 
HETATM    5  C   UNL     1      13.660  -4.175 -18.057  1.00  0.00     0.014 C 
HETATM    6  C   UNL     1      15.033  -4.366 -18.224  1.00  0.00    -0.006 C 
HETATM    7  C   UNL     1      15.842  -3.242 -18.391  1.00  0.00     0.039 C 
HETATM    8  C   UNL     1      15.354  -1.949 -18.142  1.00  0.00     0.082 C 
BRANCH   6   9
HETATM    9  C   UNL     1      15.585  -5.763 -18.167  1.00  0.00     0.065 A 
HETATM   10  C   UNL     1      15.609  -6.607 -19.414  1.00  0.00    -0.017 A 
HETATM   11  C   UNL     1      15.140  -6.112 -20.762  1.00  0.00     0.042 C 
HETATM   12  C   UNL     1      16.127  -7.841 -19.281  1.00  0.00     0.020 A 
HETATM   13  C   UNL     1      15.561  -6.981 -21.949  1.00  0.00     0.005 C 
HETATM   14  C   UNL     1      15.346  -8.447 -21.617  1.00  0.00     0.005 C 
HETATM   15  C   UNL     1      16.199  -8.841 -20.412  1.00  0.00     0.045 C 
HETATM   16  C   UNL     1      16.684  -8.306 -17.983  1.00  0.00     0.268 A 
HETATM   17  O   UNL     1      17.173  -9.431 -17.896  1.00  0.00    -0.266 OA
HETATM   18  N   UNL     1      16.619  -7.403 -16.935  1.00  0.00    -0.261 N 
HETATM   19  C   UNL     1      17.146  -7.765 -15.630  1.00  0.00     0.181 C 
HETATM   20  N   UNL     1      16.071  -6.151 -17.026  1.00  0.00    -0.295 N 
HETATM   21  HN  UNL     1      16.045  -5.534 -16.214  1.00  0.00     0.187 HD
ENDBRANCH   6   9
BRANCH   8  22
HETATM   22  S   UNL     1      16.583  -0.647 -18.021  1.00  0.00     0.244 S 
HETATM   23  O   UNL     1      16.135   0.459 -18.843  1.00  0.00    -0.206 OA
HETATM   24  O   UNL     1      16.869  -0.434 -16.616  1.00  0.00    -0.206 OA
BRANCH  22  25
HETATM   25  N   UNL     1      17.986  -1.305 -18.714  1.00  0.00    -0.202 NA
HETATM   26  C   UNL     1      19.222  -1.220 -17.890  1.00  0.00     0.112 C 
HETATM   27  C   UNL     1      20.254  -2.190 -18.470  1.00  0.00     0.054 C 
HETATM   28  C   UNL     1      20.499  -1.929 -19.935  1.00  0.00    -0.050 A 
HETATM   29  C   UNL     1      21.666  -2.404 -20.550  1.00  0.00     0.007 A 
HETATM   30  C   UNL     1      19.535  -1.247 -20.701  1.00  0.00    -0.038 A 
HETATM   31  C   UNL     1      21.899  -2.158 -21.903  1.00  0.00     0.001 A 
HETATM   32  C   UNL     1      20.971  -1.440 -22.652  1.00  0.00     0.001 A 
HETATM   33  C   UNL     1      19.793  -0.988 -22.056  1.00  0.00     0.009 A 
HETATM   34  C   UNL     1      18.244  -0.754 -20.078  1.00  0.00     0.146 C 
ENDBRANCH  22  25
ENDBRANCH   8  22
ENDBRANCH   2   3
TORSDOF 4
ENDMDL
MODEL 9
REMARK VINA RESULT:      -7.9      3.051      6.700
REMARK  4 active torsions:
REMARK  status: ('A' for Active; 'I' for Inactive)
REMARK    1  A    between atoms: C_2  and  C_3 
REMARK    2  A    between atoms: C_6  and  C_22 
REMARK    3  A    between atoms: C_8  and  S_9 
REMARK    4  A    between atoms: S_9  and  N_12 
ROOT
HETATM    1  C   UNL     1      11.298  -0.697 -19.626  1.00  0.00     0.010 C 
HETATM    2  C   UNL     1      12.009  -2.016 -19.328  1.00  0.00     0.035 C 
ENDROOT
BRANCH   2   3
HETATM    3  C   UNL     1      12.613  -2.600 -20.583  1.00  0.00    -0.036 C 
HETATM    4  C   UNL     1      11.733  -2.927 -21.633  1.00  0.00     0.009 C 
HETATM    5  C   UNL     1      12.155  -3.695 -22.725  1.00  0.00     0.014 C 
HETATM    6  C   UNL     1      13.483  -4.120 -22.810  1.00  0.00    -0.006 C 
HETATM    7  C   UNL     1      14.398  -3.621 -21.883  1.00  0.00     0.039 C 
HETATM    8  C   UNL     1      13.972  -2.925 -20.739  1.00  0.00     0.082 C 
BRANCH   6   9
HETATM    9  C   UNL     1      13.858  -5.128 -23.861  1.00  0.00     0.065 A 
HETATM   10  C   UNL     1      14.042  -6.572 -23.476  1.00  0.00    -0.017 A 
HETATM   11  C   UNL     1      13.829  -7.093 -22.075  1.00  0.00     0.042 C 
HETATM   12  C   UNL     1      14.368  -7.411 -24.477  1.00  0.00     0.020 A 
HETATM   13  C   UNL     1      13.728  -8.616 -21.963  1.00  0.00     0.005 C 
HETATM   14  C   UNL     1      14.810  -9.269 -22.807  1.00  0.00     0.005 C 
HETATM   15  C   UNL     1      14.630  -8.885 -24.275  1.00  0.00     0.045 C 
HETATM   16  C   UNL     1      14.483  -6.929 -25.879  1.00  0.00     0.268 A 
HETATM   17  O   UNL     1      14.759  -7.723 -26.777  1.00  0.00    -0.266 OA
HETATM   18  N   UNL     1      14.253  -5.578 -26.079  1.00  0.00    -0.261 N 
HETATM   19  C   UNL     1      14.335  -5.017 -27.416  1.00  0.00     0.181 C 
HETATM   20  N   UNL     1      13.950  -4.689 -25.080  1.00  0.00    -0.295 N 
HETATM   21  HN  UNL     1      13.799  -3.703 -25.291  1.00  0.00     0.187 HD
ENDBRANCH   6   9
BRANCH   8  22
HETATM   22  S   UNL     1      15.201  -2.682 -19.455  1.00  0.00     0.244 S 
HETATM   23  O   UNL     1      16.492  -3.041 -20.006  1.00  0.00    -0.206 OA
HETATM   24  O   UNL     1      14.999  -1.362 -18.890  1.00  0.00    -0.206 OA
BRANCH  22  25
HETATM   25  N   UNL     1      14.797  -3.801 -18.245  1.00  0.00    -0.202 NA
HETATM   26  C   UNL     1      15.414  -3.571 -16.911  1.00  0.00     0.112 C 
HETATM   27  C   UNL     1      14.647  -4.399 -15.877  1.00  0.00     0.054 C 
HETATM   28  C   UNL     1      14.593  -5.856 -16.262  1.00  0.00    -0.050 A 
HETATM   29  C   UNL     1      14.315  -6.831 -15.294  1.00  0.00     0.007 A 
HETATM   30  C   UNL     1      14.778  -6.239 -17.604  1.00  0.00    -0.038 A 
HETATM   31  C   UNL     1      14.272  -8.180 -15.645  1.00  0.00     0.001 A 
HETATM   32  C   UNL     1      14.504  -8.566 -16.962  1.00  0.00     0.001 A 
HETATM   33  C   UNL     1      14.754  -7.601 -17.939  1.00  0.00     0.009 A 
HETATM   34  C   UNL     1      15.042  -5.208 -18.684  1.00  0.00     0.146 C 
ENDBRANCH  22  25
ENDBRANCH   8  22
ENDBRANCH   2   3
TORSDOF 4
ENDMDL
