MODEL 1
REMARK VINA RESULT:      -7.6      0.000      0.000
REMARK  4 active torsions:
REMARK  status: ('A' for Active; 'I' for Inactive)
REMARK    1  A    between atoms: C_5  and  N_8 
REMARK    2  A    between atoms: N_8  and  S_9 
REMARK    3  A    between atoms: S_9  and  C_12 
REMARK    4  A    between atoms: C_14  and  C_19 
ROOT
HETATM    1  C   UNL     1      14.059  -7.387 -17.054  1.00  0.00     0.048 C 
HETATM    2  C   UNL     1      13.238  -6.844 -18.186  1.00  0.00    -0.062 A 
HETATM    3  C   UNL     1      13.561  -7.138 -19.517  1.00  0.00     0.009 A 
HETATM    4  C   UNL     1      12.806  -6.603 -20.563  1.00  0.00     0.030 A 
HETATM    5  C   UNL     1      11.737  -5.757 -20.281  1.00  0.00     0.042 A 
HETATM    6  C   UNL     1      11.391  -5.473 -18.961  1.00  0.00     0.030 A 
HETATM    7  C   UNL     1      12.143  -6.013 -17.916  1.00  0.00     0.009 A 
ENDROOT
BRANCH   5   8
HETATM    8  N   UNL     1      10.984  -5.192 -21.342  1.00  0.00    -0.281 N 
HETATM    9  HN  UNL     1      10.945  -5.719 -22.214  1.00  0.00     0.179 HD
BRANCH   8  10
HETATM   10  S   UNL     1      11.138  -3.540 -21.651  1.00  0.00     0.263 S 
HETATM   11  O   UNL     1      10.964  -3.305 -23.068  1.00  0.00    -0.200 OA
HETATM   12  O   UNL     1      10.289  -2.873 -20.685  1.00  0.00    -0.200 OA
BRANCH  10  13
HETATM   13  C   UNL     1      12.830  -3.178 -21.200  1.00  0.00     0.086 C 
HETATM   14  C   UNL     1      13.059  -2.457 -20.009  1.00  0.00     0.039 C 
HETATM   15  C   UNL     1      14.366  -2.229 -19.542  1.00  0.00    -0.006 C 
HETATM   16  C   UNL     1      15.412  -2.847 -20.230  1.00  0.00     0.014 C 
HETATM   17  C   UNL     1      15.196  -3.506 -21.445  1.00  0.00     0.009 C 
HETATM   18  C   UNL     1      13.907  -3.658 -21.967  1.00  0.00    -0.039 C 
HETATM   19  C   UNL     1      13.755  -4.328 -23.306  1.00  0.00     0.050 C 
BRANCH  15  20
HETATM   20  C   UNL     1      14.569  -1.368 -18.312  1.00  0.00     0.065 A 
HETATM   21  C   UNL     1      14.428  -1.951 -16.927  1.00  0.00    -0.017 A 
HETATM   22  C   UNL     1      14.123  -3.404 -16.658  1.00  0.00     0.042 C 
HETATM   23  C   UNL     1      14.645  -1.105 -15.901  1.00  0.00     0.020 A 
HETATM   24  C   UNL     1      14.362  -3.862 -15.217  1.00  0.00     0.005 C 
HETATM   25  C   UNL     1      13.815  -2.832 -14.243  1.00  0.00     0.005 C 
HETATM   26  C   UNL     1      14.530  -1.500 -14.449  1.00  0.00     0.045 C 
HETATM   27  C   UNL     1      15.046   0.308 -16.132  1.00  0.00     0.268 A 
HETATM   28  O   UNL     1      15.270   1.045 -15.174  1.00  0.00    -0.266 OA
HETATM   29  N   UNL     1      15.157   0.692 -17.456  1.00  0.00    -0.261 N 
HETATM   30  C   UNL     1      15.596   2.038 -17.778  1.00  0.00     0.181 C 
HETATM   31  N   UNL     1      14.918  -0.133 -18.526  1.00  0.00    -0.295 N 
HETATM   32  HN  UNL     1      15.012   0.217 -19.479  1.00  0.00     0.187 HD
ENDBRANCH  15  20
ENDBRANCH  10  13
ENDBRANCH   8  10
ENDBRANCH   5   8
TORSDOF 4
ENDMDL
MODEL 2
REMARK VINA RESULT:      -7.2      3.744      7.373
REMARK  4 active torsions:
REMARK  status: ('A' for Active; 'I' for Inactive)
REMARK    1  A    between atoms: C_5  and  N_8 
REMARK    2  A    between atoms: N_8  and  S_9 
REMARK    3  A    between atoms: S_9  and  C_12 
REMARK    4  A    between atoms: C_14  and  C_19 
ROOT
HETATM    1  C   UNL     1      22.706  -2.316 -22.209  1.00  0.00     0.048 C 
HETATM    2  C   UNL     1      21.341  -2.025 -21.658  1.00  0.00    -0.062 A 
HETATM    3  C   UNL     1      20.490  -1.106 -22.287  1.00  0.00     0.009 A 
HETATM    4  C   UNL     1      19.234  -0.823 -21.748  1.00  0.00     0.030 A 
HETATM    5  C   UNL     1      18.831  -1.444 -20.568  1.00  0.00     0.042 A 
HETATM    6  C   UNL     1      19.658  -2.375 -19.944  1.00  0.00     0.030 A 
HETATM    7  C   UNL     1      20.912  -2.663 -20.486  1.00  0.00     0.009 A 
ENDROOT
BRANCH   5   8
HETATM    8  N   UNL     1      17.565  -1.138 -20.006  1.00  0.00    -0.281 N 
HETATM    9  HN  UNL     1      16.751  -1.245 -20.610  1.00  0.00     0.179 HD
BRANCH   8  10
HETATM   10  S   UNL     1      17.419   0.245 -19.050  1.00  0.00     0.263 S 
HETATM   11  O   UNL     1      18.608   0.387 -18.238  1.00  0.00    -0.200 OA
HETATM   12  O   UNL     1      17.010   1.307 -19.945  1.00  0.00    -0.200 OA
BRANCH  10  13
HETATM   13  C   UNL     1      16.025  -0.114 -17.990  1.00  0.00     0.086 C 
HETATM   14  C   UNL     1      15.334  -1.327 -18.191  1.00  0.00     0.039 C 
HETATM   15  C   UNL     1      14.295  -1.719 -17.327  1.00  0.00    -0.006 C 
HETATM   16  C   UNL     1      14.064  -0.929 -16.200  1.00  0.00     0.014 C 
HETATM   17  C   UNL     1      14.700   0.304 -16.031  1.00  0.00     0.009 C 
HETATM   18  C   UNL     1      15.670   0.749 -16.937  1.00  0.00    -0.039 C 
HETATM   19  C   UNL     1      16.272   2.111 -16.724  1.00  0.00     0.050 C 
BRANCH  15  20
HETATM   20  C   UNL     1      13.516  -2.981 -17.638  1.00  0.00     0.065 A 
HETATM   21  C   UNL     1      12.480  -3.001 -18.735  1.00  0.00    -0.017 A 
HETATM   22  C   UNL     1      12.171  -1.815 -19.615  1.00  0.00     0.042 C 
HETATM   23  C   UNL     1      11.856  -4.177 -18.943  1.00  0.00     0.020 A 
HETATM   24  C   UNL     1      11.357  -2.133 -20.872  1.00  0.00     0.005 C 
HETATM   25  C   UNL     1      10.217  -3.078 -20.531  1.00  0.00     0.005 C 
HETATM   26  C   UNL     1      10.779  -4.385 -19.980  1.00  0.00     0.045 C 
HETATM   27  C   UNL     1      12.210  -5.392 -18.161  1.00  0.00     0.268 A 
HETATM   28  O   UNL     1      11.646  -6.457 -18.398  1.00  0.00    -0.266 OA
HETATM   29  N   UNL     1      13.195  -5.224 -17.204  1.00  0.00    -0.261 N 
HETATM   30  C   UNL     1      13.644  -6.368 -16.430  1.00  0.00     0.181 C 
HETATM   31  N   UNL     1      13.833  -4.036 -16.947  1.00  0.00    -0.295 N 
HETATM   32  HN  UNL     1      14.547  -3.982 -16.221  1.00  0.00     0.187 HD
ENDBRANCH  15  20
ENDBRANCH  10  13
ENDBRANCH   8  10
ENDBRANCH   5   8
TORSDOF 4
ENDMDL
MODEL 3
REMARK VINA RESULT:      -7.2      1.655      2.207
REMARK  4 active torsions:
REMARK  status: ('A' for Active; 'I' for Inactive)
REMARK    1  A    between atoms: C_5  and  N_8 
REMARK    2  A    between atoms: N_8  and  S_9 
REMARK    3  A    between atoms: S_9  and  C_12 
REMARK    4  A    between atoms: C_14  and  C_19 
ROOT
HETATM    1  C   UNL     1       7.245  -7.935 -18.314  1.00  0.00     0.048 C 
HETATM    2  C   UNL     1       8.177  -7.260 -19.278  1.00  0.00    -0.062 A 
HETATM    3  C   UNL     1       9.549  -7.168 -19.009  1.00  0.00     0.009 A 
HETATM    4  C   UNL     1      10.402  -6.513 -19.900  1.00  0.00     0.030 A 
HETATM    5  C   UNL     1       9.882  -5.932 -21.054  1.00  0.00     0.042 A 
HETATM    6  C   UNL     1       8.523  -6.035 -21.344  1.00  0.00     0.030 A 
HETATM    7  C   UNL     1       7.672  -6.696 -20.456  1.00  0.00     0.009 A 
ENDROOT
BRANCH   5   8
HETATM    8  N   UNL     1      10.742  -5.245 -21.947  1.00  0.00    -0.281 N 
HETATM    9  HN  UNL     1      11.663  -5.651 -22.109  1.00  0.00     0.179 HD
BRANCH   8  10
HETATM   10  S   UNL     1      10.844  -3.564 -21.837  1.00  0.00     0.263 S 
HETATM   11  O   UNL     1      10.603  -2.988 -23.141  1.00  0.00    -0.200 OA
HETATM   12  O   UNL     1      10.023  -3.188 -20.704  1.00  0.00    -0.200 OA
BRANCH  10  13
HETATM   13  C   UNL     1      12.545  -3.269 -21.371  1.00  0.00     0.086 C 
HETATM   14  C   UNL     1      12.793  -2.560 -20.178  1.00  0.00     0.039 C 
HETATM   15  C   UNL     1      14.104  -2.384 -19.699  1.00  0.00    -0.006 C 
HETATM   16  C   UNL     1      15.130  -3.043 -20.379  1.00  0.00     0.014 C 
HETATM   17  C   UNL     1      14.898  -3.691 -21.596  1.00  0.00     0.009 C 
HETATM   18  C   UNL     1      13.608  -3.792 -22.130  1.00  0.00    -0.039 C 
HETATM   19  C   UNL     1      13.441  -4.454 -23.470  1.00  0.00     0.050 C 
BRANCH  15  20
HETATM   20  C   UNL     1      14.330  -1.533 -18.467  1.00  0.00     0.065 A 
HETATM   21  C   UNL     1      14.211  -2.125 -17.084  1.00  0.00    -0.017 A 
HETATM   22  C   UNL     1      13.905  -3.579 -16.821  1.00  0.00     0.042 C 
HETATM   23  C   UNL     1      14.448  -1.287 -16.056  1.00  0.00     0.020 A 
HETATM   24  C   UNL     1      14.167  -4.048 -15.387  1.00  0.00     0.005 C 
HETATM   25  C   UNL     1      13.641  -3.023 -14.397  1.00  0.00     0.005 C 
HETATM   26  C   UNL     1      14.356  -1.692 -14.604  1.00  0.00     0.045 C 
HETATM   27  C   UNL     1      14.851   0.126 -16.283  1.00  0.00     0.268 A 
HETATM   28  O   UNL     1      15.093   0.855 -15.324  1.00  0.00    -0.266 OA
HETATM   29  N   UNL     1      14.940   0.520 -17.607  1.00  0.00    -0.261 N 
HETATM   30  C   UNL     1      15.379   1.866 -17.926  1.00  0.00     0.181 C 
HETATM   31  N   UNL     1      14.680  -0.298 -18.678  1.00  0.00    -0.295 N 
HETATM   32  HN  UNL     1      14.760   0.060 -19.630  1.00  0.00     0.187 HD
ENDBRANCH  15  20
ENDBRANCH  10  13
ENDBRANCH   8  10
ENDBRANCH   5   8
TORSDOF 4
ENDMDL
MODEL 4
REMARK VINA RESULT:      -7.1      4.967      8.881
REMARK  4 active torsions:
REMARK  status: ('A' for Active; 'I' for Inactive)
REMARK    1  A    between atoms: C_5  and  N_8 
REMARK    2  A    between atoms: N_8  and  S_9 
REMARK    3  A    between atoms: S_9  and  C_12 
REMARK    4  A    between atoms: C_14  and  C_19 
ROOT
HETATM    1  C   UNL     1      13.430  -3.073 -20.769  1.00  0.00     0.048 C 
HETATM    2  C   UNL     1      14.311  -4.088 -20.101  1.00  0.00    -0.062 A 
HETATM    3  C   UNL     1      15.617  -4.317 -20.553  1.00  0.00     0.009 A 
HETATM    4  C   UNL     1      16.418  -5.284 -19.940  1.00  0.00     0.030 A 
HETATM    5  C   UNL     1      15.908  -6.036 -18.886  1.00  0.00     0.042 A 
HETATM    6  C   UNL     1      14.618  -5.804 -18.412  1.00  0.00     0.030 A 
HETATM    7  C   UNL     1      13.820  -4.833 -19.021  1.00  0.00     0.009 A 
ENDROOT
BRANCH   5   8
HETATM    8  N   UNL     1      16.710  -7.036 -18.279  1.00  0.00    -0.281 N 
HETATM    9  HN  UNL     1      17.521  -6.720 -17.747  1.00  0.00     0.179 HD
BRANCH   8  10
HETATM   10  S   UNL     1      17.085  -8.421 -19.169  1.00  0.00     0.263 S 
HETATM   11  O   UNL     1      18.174  -8.123 -20.072  1.00  0.00    -0.200 OA
HETATM   12  O   UNL     1      17.203  -9.494 -18.203  1.00  0.00    -0.200 OA
BRANCH  10  13
HETATM   13  C   UNL     1      15.603  -8.731 -20.119  1.00  0.00     0.086 C 
HETATM   14  C   UNL     1      15.649  -8.513 -21.511  1.00  0.00     0.039 C 
HETATM   15  C   UNL     1      14.553  -8.836 -22.332  1.00  0.00    -0.006 C 
HETATM   16  C   UNL     1      13.475  -9.492 -21.734  1.00  0.00     0.014 C 
HETATM   17  C   UNL     1      13.397  -9.652 -20.347  1.00  0.00     0.009 C 
HETATM   18  C   UNL     1      14.444  -9.248 -19.511  1.00  0.00    -0.039 C 
HETATM   19  C   UNL     1      14.267  -9.397 -18.025  1.00  0.00     0.050 C 
BRANCH  15  20
HETATM   20  C   UNL     1      14.611  -8.495 -23.806  1.00  0.00     0.065 A 
HETATM   21  C   UNL     1      14.300  -7.100 -24.292  1.00  0.00    -0.017 A 
HETATM   22  C   UNL     1      13.956  -5.953 -23.374  1.00  0.00     0.042 C 
HETATM   23  C   UNL     1      14.398  -6.897 -25.620  1.00  0.00     0.020 A 
HETATM   24  C   UNL     1      14.017  -4.566 -24.018  1.00  0.00     0.005 C 
HETATM   25  C   UNL     1      13.363  -4.596 -25.389  1.00  0.00     0.005 C 
HETATM   26  C   UNL     1      14.106  -5.577 -26.291  1.00  0.00     0.045 C 
HETATM   27  C   UNL     1      14.833  -7.981 -26.541  1.00  0.00     0.268 A 
HETATM   28  O   UNL     1      14.945  -7.754 -27.743  1.00  0.00    -0.266 OA
HETATM   29  N   UNL     1      15.105  -9.201 -25.947  1.00  0.00    -0.261 N 
HETATM   30  C   UNL     1      15.589 -10.302 -26.760  1.00  0.00     0.181 C 
HETATM   31  N   UNL     1      14.991  -9.451 -24.602  1.00  0.00    -0.295 N 
HETATM   32  HN  UNL     1      15.202 -10.378 -24.231  1.00  0.00     0.187 HD
ENDBRANCH  15  20
ENDBRANCH  10  13
ENDBRANCH   8  10
ENDBRANCH   5   8
TORSDOF 4
ENDMDL
MODEL 5
REMARK VINA RESULT:      -7.0      2.138      2.840
REMARK  4 active torsions:
REMARK  status: ('A' for Active; 'I' for Inactive)
REMARK    1  A    between atoms: C_5  and  N_8 
REMARK    2  A    between atoms: N_8  and  S_9 
REMARK    3  A    between atoms: S_9  and  C_12 
REMARK    4  A    between atoms: C_14  and  C_19 
ROOT
HETATM    1  C   UNL     1      16.840  -9.312 -18.203  1.00  0.00     0.048 C 
HETATM    2  C   UNL     1      16.488  -8.050 -18.935  1.00  0.00    -0.062 A 
HETATM    3  C   UNL     1      15.792  -7.016 -18.296  1.00  0.00     0.009 A 
HETATM    4  C   UNL     1      15.445  -5.859 -18.997  1.00  0.00     0.030 A 
HETATM    5  C   UNL     1      15.778  -5.740 -20.344  1.00  0.00     0.042 A 
HETATM    6  C   UNL     1      16.489  -6.752 -20.986  1.00  0.00     0.030 A 
HETATM    7  C   UNL     1      16.841  -7.906 -20.283  1.00  0.00     0.009 A 
ENDROOT
BRANCH   5   8
HETATM    8  N   UNL     1      15.405  -4.576 -21.064  1.00  0.00    -0.281 N 
HETATM    9  HN  UNL     1      15.597  -3.677 -20.623  1.00  0.00     0.179 HD
BRANCH   8  10
HETATM   10  S   UNL     1      13.905  -4.552 -21.837  1.00  0.00     0.263 S 
HETATM   11  O   UNL     1      14.068  -4.015 -23.170  1.00  0.00    -0.200 OA
HETATM   12  O   UNL     1      13.333  -5.868 -21.639  1.00  0.00    -0.200 OA
BRANCH  10  13
HETATM   13  C   UNL     1      12.939  -3.409 -20.859  1.00  0.00     0.086 C 
HETATM   14  C   UNL     1      13.608  -2.637 -19.887  1.00  0.00     0.039 C 
HETATM   15  C   UNL     1      12.929  -1.646 -19.155  1.00  0.00    -0.006 C 
HETATM   16  C   UNL     1      11.609  -1.373 -19.517  1.00  0.00     0.014 C 
HETATM   17  C   UNL     1      10.922  -2.177 -20.432  1.00  0.00     0.009 C 
HETATM   18  C   UNL     1      11.564  -3.227 -21.098  1.00  0.00    -0.039 C 
HETATM   19  C   UNL     1      10.750  -4.086 -22.026  1.00  0.00     0.050 C 
BRANCH  15  20
HETATM   20  C   UNL     1      13.664  -0.910 -18.055  1.00  0.00     0.065 A 
HETATM   21  C   UNL     1      13.905  -1.559 -16.714  1.00  0.00    -0.017 A 
HETATM   22  C   UNL     1      13.482  -2.969 -16.381  1.00  0.00     0.042 C 
HETATM   23  C   UNL     1      14.582  -0.826 -15.810  1.00  0.00     0.020 A 
HETATM   24  C   UNL     1      14.114  -3.555 -15.116  1.00  0.00     0.005 C 
HETATM   25  C   UNL     1      14.094  -2.526 -13.997  1.00  0.00     0.005 C 
HETATM   26  C   UNL     1      14.899  -1.299 -14.412  1.00  0.00     0.045 C 
HETATM   27  C   UNL     1      15.101   0.528 -16.142  1.00  0.00     0.268 A 
HETATM   28  O   UNL     1      15.745   1.158 -15.306  1.00  0.00    -0.266 OA
HETATM   29  N   UNL     1      14.821   0.983 -17.418  1.00  0.00    -0.261 N 
HETATM   30  C   UNL     1      15.334   2.271 -17.849  1.00  0.00     0.181 C 
HETATM   31  N   UNL     1      14.111   0.275 -18.355  1.00  0.00    -0.295 N 
HETATM   32  HN  UNL     1      13.935   0.673 -19.278  1.00  0.00     0.187 HD
ENDBRANCH  15  20
ENDBRANCH  10  13
ENDBRANCH   8  10
ENDBRANCH   5   8
TORSDOF 4
ENDMDL
MODEL 6
REMARK VINA RESULT:      -7.0      3.860      7.422
REMARK  4 active torsions:
REMARK  status: ('A' for Active; 'I' for Inactive)
REMARK    1  A    between atoms: C_5  and  N_8 
REMARK    2  A    between atoms: N_8  and  S_9 
REMARK    3  A    between atoms: S_9  and  C_12 
REMARK    4  A    between atoms: C_14  and  C_19 
ROOT
HETATM    1  C   UNL     1      14.271  -4.072 -22.252  1.00  0.00     0.048 C 
HETATM    2  C   UNL     1      14.644  -3.288 -21.029  1.00  0.00    -0.062 A 
HETATM    3  C   UNL     1      13.661  -2.767 -20.177  1.00  0.00     0.009 A 
HETATM    4  C   UNL     1      14.020  -2.015 -19.058  1.00  0.00     0.030 A 
HETATM    5  C   UNL     1      15.365  -1.765 -18.795  1.00  0.00     0.042 A 
HETATM    6  C   UNL     1      16.354  -2.294 -19.622  1.00  0.00     0.030 A 
HETATM    7  C   UNL     1      15.994  -3.052 -20.738  1.00  0.00     0.009 A 
ENDROOT
BRANCH   5   8
HETATM    8  N   UNL     1      15.731  -0.980 -17.673  1.00  0.00    -0.281 N 
HETATM    9  HN  UNL     1      16.166  -0.077 -17.860  1.00  0.00     0.179 HD
BRANCH   8  10
HETATM   10  S   UNL     1      16.480  -1.741 -16.365  1.00  0.00     0.263 S 
HETATM   11  O   UNL     1      17.814  -2.144 -16.753  1.00  0.00    -0.200 OA
HETATM   12  O   UNL     1      16.277  -0.869 -15.227  1.00  0.00    -0.200 OA
BRANCH  10  13
HETATM   13  C   UNL     1      15.483  -3.199 -16.093  1.00  0.00     0.086 C 
HETATM   14  C   UNL     1      16.028  -4.452 -16.444  1.00  0.00     0.039 C 
HETATM   15  C   UNL     1      15.340  -5.646 -16.160  1.00  0.00    -0.006 C 
HETATM   16  C   UNL     1      14.167  -5.549 -15.411  1.00  0.00     0.014 C 
HETATM   17  C   UNL     1      13.590  -4.309 -15.117  1.00  0.00     0.009 C 
HETATM   18  C   UNL     1      14.220  -3.113 -15.477  1.00  0.00    -0.039 C 
HETATM   19  C   UNL     1      13.514  -1.818 -15.180  1.00  0.00     0.050 C 
BRANCH  15  20
HETATM   20  C   UNL     1      15.918  -6.960 -16.642  1.00  0.00     0.065 A 
HETATM   21  C   UNL     1      15.646  -7.460 -18.040  1.00  0.00    -0.017 A 
HETATM   22  C   UNL     1      14.834  -6.697 -19.057  1.00  0.00     0.042 C 
HETATM   23  C   UNL     1      16.221  -8.631 -18.376  1.00  0.00     0.020 A 
HETATM   24  C   UNL     1      14.964  -7.196 -20.499  1.00  0.00     0.005 C 
HETATM   25  C   UNL     1      14.898  -8.714 -20.535  1.00  0.00     0.005 C 
HETATM   26  C   UNL     1      16.047  -9.298 -19.719  1.00  0.00     0.045 C 
HETATM   27  C   UNL     1      17.109  -9.358 -17.430  1.00  0.00     0.268 A 
HETATM   28  O   UNL     1      17.645 -10.408 -17.779  1.00  0.00    -0.266 OA
HETATM   29  N   UNL     1      17.282  -8.766 -16.192  1.00  0.00    -0.261 N 
HETATM   30  C   UNL     1      18.176  -9.377 -15.224  1.00  0.00     0.181 C 
HETATM   31  N   UNL     1      16.692  -7.588 -15.806  1.00  0.00    -0.295 N 
HETATM   32  HN  UNL     1      16.858  -7.210 -14.874  1.00  0.00     0.187 HD
ENDBRANCH  15  20
ENDBRANCH  10  13
ENDBRANCH   8  10
ENDBRANCH   5   8
TORSDOF 4
ENDMDL
MODEL 7
REMARK VINA RESULT:      -7.0      3.983      7.253
REMARK  4 active torsions:
REMARK  status: ('A' for Active; 'I' for Inactive)
REMARK    1  A    between atoms: C_5  and  N_8 
REMARK    2  A    between atoms: N_8  and  S_9 
REMARK    3  A    between atoms: S_9  and  C_12 
REMARK    4  A    between atoms: C_14  and  C_19 
ROOT
HETATM    1  C   UNL     1      22.444  -2.219 -22.359  1.00  0.00     0.048 C 
HETATM    2  C   UNL     1      21.158  -1.921 -21.645  1.00  0.00    -0.062 A 
HETATM    3  C   UNL     1      20.225  -1.025 -22.184  1.00  0.00     0.009 A 
HETATM    4  C   UNL     1      19.045  -0.734 -21.496  1.00  0.00     0.030 A 
HETATM    5  C   UNL     1      18.802  -1.325 -20.259  1.00  0.00     0.042 A 
HETATM    6  C   UNL     1      19.711  -2.235 -19.722  1.00  0.00     0.030 A 
HETATM    7  C   UNL     1      20.888  -2.529 -20.413  1.00  0.00     0.009 A 
ENDROOT
BRANCH   5   8
HETATM    8  N   UNL     1      17.616  -1.012 -19.548  1.00  0.00    -0.281 N 
HETATM    9  HN  UNL     1      16.732  -1.280 -19.979  1.00  0.00     0.179 HD
BRANCH   8  10
HETATM   10  S   UNL     1      17.488   0.506 -18.821  1.00  0.00     0.263 S 
HETATM   11  O   UNL     1      18.793   0.921 -18.357  1.00  0.00    -0.200 OA
HETATM   12  O   UNL     1      16.742   1.330 -19.750  1.00  0.00    -0.200 OA
BRANCH  10  13
HETATM   13  C   UNL     1      16.428   0.216 -17.411  1.00  0.00     0.086 C 
HETATM   14  C   UNL     1      16.031  -1.110 -17.141  1.00  0.00     0.039 C 
HETATM   15  C   UNL     1      15.285  -1.422 -15.990  1.00  0.00    -0.006 C 
HETATM   16  C   UNL     1      15.065  -0.396 -15.069  1.00  0.00     0.014 C 
HETATM   17  C   UNL     1      15.399   0.930 -15.362  1.00  0.00     0.009 C 
HETATM   18  C   UNL     1      16.059   1.265 -16.550  1.00  0.00    -0.039 C 
HETATM   19  C   UNL     1      16.336   2.718 -16.825  1.00  0.00     0.050 C 
BRANCH  15  20
HETATM   20  C   UNL     1      14.798  -2.842 -15.791  1.00  0.00     0.065 A 
HETATM   21  C   UNL     1      13.905  -3.506 -16.811  1.00  0.00    -0.017 A 
HETATM   22  C   UNL     1      13.469  -2.844 -18.095  1.00  0.00     0.042 C 
HETATM   23  C   UNL     1      13.542  -4.776 -16.548  1.00  0.00     0.020 A 
HETATM   24  C   UNL     1      12.866  -3.788 -19.139  1.00  0.00     0.005 C 
HETATM   25  C   UNL     1      11.897  -4.752 -18.475  1.00  0.00     0.005 C 
HETATM   26  C   UNL     1      12.638  -5.593 -17.439  1.00  0.00     0.045 C 
HETATM   27  C   UNL     1      14.037  -5.490 -15.341  1.00  0.00     0.268 A 
HETATM   28  O   UNL     1      13.714  -6.660 -15.148  1.00  0.00    -0.266 OA
HETATM   29  N   UNL     1      14.866  -4.760 -14.509  1.00  0.00    -0.261 N 
HETATM   30  C   UNL     1      15.441  -5.393 -13.335  1.00  0.00     0.181 C 
HETATM   31  N   UNL     1      15.236  -3.457 -14.731  1.00  0.00    -0.295 N 
HETATM   32  HN  UNL     1      15.847  -2.975 -14.072  1.00  0.00     0.187 HD
ENDBRANCH  15  20
ENDBRANCH  10  13
ENDBRANCH   8  10
ENDBRANCH   5   8
TORSDOF 4
ENDMDL
MODEL 8
REMARK VINA RESULT:      -6.9      2.851      6.402
REMARK  4 active torsions:
REMARK  status: ('A' for Active; 'I' for Inactive)
REMARK    1  A    between atoms: C_5  and  N_8 
REMARK    2  A    between atoms: N_8  and  S_9 
REMARK    3  A    between atoms: S_9  and  C_12 
REMARK    4  A    between atoms: C_14  and  C_19 
ROOT
HETATM    1  C   UNL     1      17.116  -9.227 -17.979  1.00  0.00     0.048 C 
HETATM    2  C   UNL     1      16.136  -8.201 -17.491  1.00  0.00    -0.062 A 
HETATM    3  C   UNL     1      15.610  -7.236 -18.359  1.00  0.00     0.009 A 
HETATM    4  C   UNL     1      14.721  -6.268 -17.886  1.00  0.00     0.030 A 
HETATM    5  C   UNL     1      14.369  -6.252 -16.539  1.00  0.00     0.042 A 
HETATM    6  C   UNL     1      14.868  -7.220 -15.669  1.00  0.00     0.030 A 
HETATM    7  C   UNL     1      15.753  -8.190 -16.144  1.00  0.00     0.009 A 
ENDROOT
BRANCH   5   8
HETATM    8  N   UNL     1      13.486  -5.256 -16.051  1.00  0.00    -0.281 N 
HETATM    9  HN  UNL     1      12.647  -5.071 -16.600  1.00  0.00     0.179 HD
BRANCH   8  10
HETATM   10  S   UNL     1      14.141  -3.816 -15.461  1.00  0.00     0.263 S 
HETATM   11  O   UNL     1      13.577  -3.538 -14.159  1.00  0.00    -0.200 OA
HETATM   12  O   UNL     1      15.574  -3.931 -15.632  1.00  0.00    -0.200 OA
BRANCH  10  13
HETATM   13  C   UNL     1      13.572  -2.581 -16.622  1.00  0.00     0.086 C 
HETATM   14  C   UNL     1      12.863  -3.018 -17.761  1.00  0.00     0.039 C 
HETATM   15  C   UNL     1      12.298  -2.094 -18.659  1.00  0.00    -0.006 C 
HETATM   16  C   UNL     1      12.357  -0.743 -18.314  1.00  0.00     0.014 C 
HETATM   17  C   UNL     1      13.113  -0.302 -17.223  1.00  0.00     0.009 C 
HETATM   18  C   UNL     1      13.758  -1.209 -16.375  1.00  0.00    -0.039 C 
HETATM   19  C   UNL     1      14.600  -0.661 -15.255  1.00  0.00     0.050 C 
BRANCH  15  20
HETATM   20  C   UNL     1      11.630  -2.607 -19.919  1.00  0.00     0.065 A 
HETATM   21  C   UNL     1      12.443  -3.224 -21.031  1.00  0.00    -0.017 A 
HETATM   22  C   UNL     1      13.939  -3.412 -20.967  1.00  0.00     0.042 C 
HETATM   23  C   UNL     1      11.751  -3.663 -22.100  1.00  0.00     0.020 A 
HETATM   24  C   UNL     1      14.520  -4.355 -22.024  1.00  0.00     0.005 C 
HETATM   25  C   UNL     1      13.900  -4.065 -23.381  1.00  0.00     0.005 C 
HETATM   26  C   UNL     1      12.392  -4.288 -23.315  1.00  0.00     0.045 C 
HETATM   27  C   UNL     1      10.267  -3.585 -22.150  1.00  0.00     0.268 A 
HETATM   28  O   UNL     1       9.664  -4.026 -23.125  1.00  0.00    -0.266 OA
HETATM   29  N   UNL     1       9.658  -3.014 -21.046  1.00  0.00    -0.261 N 
HETATM   30  C   UNL     1       8.209  -2.944 -20.983  1.00  0.00     0.181 C 
HETATM   31  N   UNL     1      10.332  -2.531 -19.952  1.00  0.00    -0.295 N 
HETATM   32  HN  UNL     1       9.820  -2.116 -19.174  1.00  0.00     0.187 HD
ENDBRANCH  15  20
ENDBRANCH  10  13
ENDBRANCH   8  10
ENDBRANCH   5   8
TORSDOF 4
ENDMDL
MODEL 9
REMARK VINA RESULT:      -6.9      3.550      4.743
REMARK  4 active torsions:
REMARK  status: ('A' for Active; 'I' for Inactive)
REMARK    1  A    between atoms: C_5  and  N_8 
REMARK    2  A    between atoms: N_8  and  S_9 
REMARK    3  A    between atoms: S_9  and  C_12 
REMARK    4  A    between atoms: C_14  and  C_19 
ROOT
HETATM    1  C   UNL     1      14.960  -4.923 -13.515  1.00  0.00     0.048 C 
HETATM    2  C   UNL     1      15.246  -5.970 -14.551  1.00  0.00    -0.062 A 
HETATM    3  C   UNL     1      16.534  -6.129 -15.080  1.00  0.00     0.009 A 
HETATM    4  C   UNL     1      16.781  -7.089 -16.064  1.00  0.00     0.030 A 
HETATM    5  C   UNL     1      15.737  -7.881 -16.534  1.00  0.00     0.042 A 
HETATM    6  C   UNL     1      14.456  -7.748 -16.002  1.00  0.00     0.030 A 
HETATM    7  C   UNL     1      14.211  -6.792 -15.014  1.00  0.00     0.009 A 
ENDROOT
BRANCH   5   8
HETATM    8  N   UNL     1      15.980  -8.839 -17.551  1.00  0.00    -0.281 N 
HETATM    9  HN  UNL     1      16.900  -9.278 -17.564  1.00  0.00     0.179 HD
BRANCH   8  10
HETATM   10  S   UNL     1      15.461  -8.499 -19.121  1.00  0.00     0.263 S 
HETATM   11  O   UNL     1      16.208  -9.314 -20.054  1.00  0.00    -0.200 OA
HETATM   12  O   UNL     1      14.014  -8.562 -19.085  1.00  0.00    -0.200 OA
BRANCH  10  13
HETATM   13  C   UNL     1      15.905  -6.783 -19.356  1.00  0.00     0.086 C 
HETATM   14  C   UNL     1      14.941  -5.800 -19.050  1.00  0.00     0.039 C 
HETATM   15  C   UNL     1      15.259  -4.431 -19.112  1.00  0.00    -0.006 C 
HETATM   16  C   UNL     1      16.589  -4.091 -19.362  1.00  0.00     0.014 C 
HETATM   17  C   UNL     1      17.531  -5.057 -19.730  1.00  0.00     0.009 C 
HETATM   18  C   UNL     1      17.201  -6.416 -19.762  1.00  0.00    -0.039 C 
HETATM   19  C   UNL     1      18.249  -7.393 -20.221  1.00  0.00     0.050 C 
BRANCH  15  20
HETATM   20  C   UNL     1      14.166  -3.411 -18.870  1.00  0.00     0.065 A 
HETATM   21  C   UNL     1      14.095  -2.644 -17.571  1.00  0.00    -0.017 A 
HETATM   22  C   UNL     1      15.099  -2.796 -16.456  1.00  0.00     0.042 C 
HETATM   23  C   UNL     1      13.095  -1.748 -17.463  1.00  0.00     0.020 A 
HETATM   24  C   UNL     1      15.055  -1.699 -15.388  1.00  0.00     0.005 C 
HETATM   25  C   UNL     1      13.615  -1.397 -15.009  1.00  0.00     0.005 C 
HETATM   26  C   UNL     1      12.852  -0.905 -16.235  1.00  0.00     0.045 C 
HETATM   27  C   UNL     1      12.149  -1.502 -18.584  1.00  0.00     0.268 A 
HETATM   28  O   UNL     1      11.269  -0.653 -18.466  1.00  0.00    -0.266 OA
HETATM   29  N   UNL     1      12.353  -2.265 -19.720  1.00  0.00    -0.261 N 
HETATM   30  C   UNL     1      11.511  -2.054 -20.885  1.00  0.00     0.181 C 
HETATM   31  N   UNL     1      13.343  -3.205 -19.856  1.00  0.00    -0.295 N 
HETATM   32  HN  UNL     1      13.433  -3.738 -20.721  1.00  0.00     0.187 HD
ENDBRANCH  15  20
ENDBRANCH  10  13
ENDBRANCH   8  10
ENDBRANCH   5   8
TORSDOF 4
ENDMDL
