MODEL 1
REMARK VINA RESULT:      -7.4      0.000      0.000
REMARK  7 active torsions:
REMARK  status: ('A' for Active; 'I' for Inactive)
REMARK    1  A    between atoms: O_2  and  C_3 
REMARK    2  A    between atoms: C_6  and  C_9 
REMARK    3  A    between atoms: C_9  and  C_11 
REMARK    4  A    between atoms: C_11  and  O_12 
REMARK    5  A    between atoms: O_12  and  C_13 
REMARK    6  A    between atoms: C_13  and  C_15 
REMARK    7  A    between atoms: C_15  and  N_16 
ROOT
HETATM    1  C   UNL     1      11.519   0.780 -18.634  1.00  0.00     0.210 C 
HETATM    2  O   UNL     1      12.874   1.015 -18.258  1.00  0.00    -0.356 OA
ENDROOT
BRANCH   2   3
HETATM    3  C   UNL     1      13.522  -0.046 -17.689  1.00  0.00     0.068 A 
HETATM    4  C   UNL     1      12.904  -1.193 -17.197  1.00  0.00     0.037 A 
HETATM    5  C   UNL     1      13.674  -2.212 -16.622  1.00  0.00     0.018 A 
HETATM    6  C   UNL     1      15.073  -2.107 -16.533  1.00  0.00     0.012 A 
HETATM    7  C   UNL     1      15.691  -0.969 -17.059  1.00  0.00     0.018 A 
HETATM    8  C   UNL     1      14.916   0.050 -17.641  1.00  0.00     0.037 A 
BRANCH   6   9
HETATM    9  C   UNL     1      15.827  -3.221 -15.864  1.00  0.00     0.183 C 
HETATM   10  O   UNL     1      16.685  -3.831 -16.506  1.00  0.00    -0.290 OA
BRANCH   9  11
HETATM   11  C   UNL     1      15.491  -3.598 -14.419  1.00  0.00     0.262 C 
BRANCH  11  12
HETATM   12  O   UNL     1      15.214  -5.005 -14.267  1.00  0.00    -0.312 OA
BRANCH  12  13
HETATM   13  C   UNL     1      13.973  -5.411 -14.667  1.00  0.00     0.277 C 
HETATM   14  O   UNL     1      12.946  -4.790 -14.438  1.00  0.00    -0.263 OA
BRANCH  13  15
HETATM   15  C   UNL     1      14.017  -6.701 -15.484  1.00  0.00     0.245 C 
BRANCH  15  16
HETATM   16  N   UNL     1      14.185  -6.462 -16.912  1.00  0.00    -0.278 N 
HETATM   17  C   UNL     1      15.348  -6.835 -17.555  1.00  0.00     0.234 C 
HETATM   18  O   UNL     1      16.408  -7.164 -17.055  1.00  0.00    -0.272 OA
HETATM   19  C   UNL     1      15.017  -6.712 -19.009  1.00  0.00     0.122 C 
HETATM   20  C   UNL     1      14.288  -5.361 -18.886  1.00  0.00     0.122 C 
HETATM   21  C   UNL     1      16.067  -6.676 -20.108  1.00  0.00     0.086 C 
HETATM   22  C   UNL     1      13.321  -5.788 -17.790  1.00  0.00     0.234 C 
HETATM   23  C   UNL     1      14.427  -4.573 -20.205  1.00  0.00     0.086 C 
HETATM   24  O   UNL     1      12.144  -5.549 -17.678  1.00  0.00    -0.272 OA
HETATM   25  C   UNL     1      14.402  -5.421 -21.489  1.00  0.00    -0.025 A 
HETATM   26  C   UNL     1      15.957  -4.184 -20.072  1.00  0.00    -0.025 A 
HETATM   27 BR   UNL     1      13.219  -3.072 -20.204  1.00  0.00    -0.074 Br
HETATM   28  C   UNL     1      13.882  -5.025 -22.730  1.00  0.00     0.010 A 
HETATM   29  C   UNL     1      15.257  -6.570 -21.436  1.00  0.00    -0.025 A 
HETATM   30  C   UNL     1      14.119  -5.795 -23.874  1.00  0.00     0.001 A 
HETATM   31  C   UNL     1      14.863  -6.969 -23.793  1.00  0.00     0.001 A 
HETATM   32  C   UNL     1      15.438  -7.356 -22.582  1.00  0.00     0.010 A 
HETATM   33  C   UNL     1      16.815  -5.345 -19.954  1.00  0.00    -0.025 A 
HETATM   34  C   UNL     1      16.493  -2.911 -19.901  1.00  0.00     0.010 A 
HETATM   35  C   UNL     1      18.160  -5.195 -19.634  1.00  0.00     0.010 A 
HETATM   36  C   UNL     1      18.670  -3.914 -19.452  1.00  0.00     0.001 A 
HETATM   37  C   UNL     1      17.851  -2.788 -19.593  1.00  0.00     0.001 A 
HETATM   38 BR   UNL     1      17.157  -8.278 -20.035  1.00  0.00    -0.074 Br
ENDBRANCH  15  16
ENDBRANCH  13  15
ENDBRANCH  12  13
ENDBRANCH  11  12
ENDBRANCH   9  11
ENDBRANCH   6   9
ENDBRANCH   2   3
TORSDOF 7
ENDMDL
MODEL 2
REMARK VINA RESULT:      -7.3      3.061      4.928
REMARK  7 active torsions:
REMARK  status: ('A' for Active; 'I' for Inactive)
REMARK    1  A    between atoms: O_2  and  C_3 
REMARK    2  A    between atoms: C_6  and  C_9 
REMARK    3  A    between atoms: C_9  and  C_11 
REMARK    4  A    between atoms: C_11  and  O_12 
REMARK    5  A    between atoms: O_12  and  C_13 
REMARK    6  A    between atoms: C_13  and  C_15 
REMARK    7  A    between atoms: C_15  and  N_16 
ROOT
HETATM    1  C   UNL     1      12.036  -2.596 -20.710  1.00  0.00     0.210 C 
HETATM    2  O   UNL     1      11.710  -1.503 -19.855  1.00  0.00    -0.356 OA
ENDROOT
BRANCH   2   3
HETATM    3  C   UNL     1      12.247  -1.555 -18.599  1.00  0.00     0.068 A 
HETATM    4  C   UNL     1      12.028  -0.617 -17.593  1.00  0.00     0.037 A 
HETATM    5  C   UNL     1      12.645  -0.771 -16.345  1.00  0.00     0.018 A 
HETATM    6  C   UNL     1      13.485  -1.866 -16.077  1.00  0.00     0.012 A 
HETATM    7  C   UNL     1      13.675  -2.822 -17.079  1.00  0.00     0.018 A 
HETATM    8  C   UNL     1      13.049  -2.668 -18.329  1.00  0.00     0.037 A 
BRANCH   6   9
HETATM    9  C   UNL     1      14.146  -1.940 -14.729  1.00  0.00     0.183 C 
HETATM   10  O   UNL     1      15.014  -1.112 -14.444  1.00  0.00    -0.290 OA
BRANCH   9  11
HETATM   11  C   UNL     1      13.755  -3.057 -13.758  1.00  0.00     0.262 C 
BRANCH  11  12
HETATM   12  O   UNL     1      14.864  -3.919 -13.435  1.00  0.00    -0.312 OA
BRANCH  12  13
HETATM   13  C   UNL     1      15.080  -4.955 -14.298  1.00  0.00     0.277 C 
HETATM   14  O   UNL     1      14.192  -5.530 -14.908  1.00  0.00    -0.263 OA
BRANCH  13  15
HETATM   15  C   UNL     1      16.564  -5.279 -14.459  1.00  0.00     0.245 C 
BRANCH  15  16
HETATM   16  N   UNL     1      17.192  -4.535 -15.544  1.00  0.00    -0.278 N 
HETATM   17  C   UNL     1      17.865  -3.357 -15.291  1.00  0.00     0.234 C 
HETATM   18  O   UNL     1      17.844  -2.685 -14.275  1.00  0.00    -0.272 OA
HETATM   19  C   UNL     1      18.604  -3.077 -16.561  1.00  0.00     0.122 C 
HETATM   20  C   UNL     1      17.430  -3.419 -17.499  1.00  0.00     0.122 C 
HETATM   21  C   UNL     1      19.206  -1.723 -16.901  1.00  0.00     0.086 C 
HETATM   22  C   UNL     1      17.148  -4.800 -16.922  1.00  0.00     0.234 C 
HETATM   23  C   UNL     1      17.546  -2.598 -18.799  1.00  0.00     0.086 C 
HETATM   24  O   UNL     1      16.891  -5.828 -17.500  1.00  0.00    -0.272 OA
HETATM   25  C   UNL     1      18.979  -2.363 -19.308  1.00  0.00    -0.025 A 
HETATM   26  C   UNL     1      17.149  -1.183 -18.205  1.00  0.00    -0.025 A 
HETATM   27 BR   UNL     1      16.321  -3.281 -20.119  1.00  0.00    -0.074 Br
HETATM   28  C   UNL     1      19.372  -2.260 -20.651  1.00  0.00     0.010 A 
HETATM   29  C   UNL     1      19.886  -1.921 -18.290  1.00  0.00    -0.025 A 
HETATM   30  C   UNL     1      20.660  -1.823 -20.979  1.00  0.00     0.001 A 
HETATM   31  C   UNL     1      21.572  -1.498 -19.977  1.00  0.00     0.001 A 
HETATM   32  C   UNL     1      21.189  -1.538 -18.636  1.00  0.00     0.010 A 
HETATM   33  C   UNL     1      18.029  -0.767 -17.132  1.00  0.00    -0.025 A 
HETATM   34  C   UNL     1      16.010  -0.437 -18.491  1.00  0.00     0.010 A 
HETATM   35  C   UNL     1      17.719   0.350 -16.365  1.00  0.00     0.010 A 
HETATM   36  C   UNL     1      16.567   1.071 -16.657  1.00  0.00     0.001 A 
HETATM   37  C   UNL     1      15.729   0.688 -17.712  1.00  0.00     0.001 A 
HETATM   38 BR   UNL     1      20.472  -1.199 -15.528  1.00  0.00    -0.074 Br
ENDBRANCH  15  16
ENDBRANCH  13  15
ENDBRANCH  12  13
ENDBRANCH  11  12
ENDBRANCH   9  11
ENDBRANCH   6   9
ENDBRANCH   2   3
TORSDOF 7
ENDMDL
MODEL 3
REMARK VINA RESULT:      -7.2      3.253      4.937
REMARK  7 active torsions:
REMARK  status: ('A' for Active; 'I' for Inactive)
REMARK    1  A    between atoms: O_2  and  C_3 
REMARK    2  A    between atoms: C_6  and  C_9 
REMARK    3  A    between atoms: C_9  and  C_11 
REMARK    4  A    between atoms: C_11  and  O_12 
REMARK    5  A    between atoms: O_12  and  C_13 
REMARK    6  A    between atoms: C_13  and  C_15 
REMARK    7  A    between atoms: C_15  and  N_16 
ROOT
HETATM    1  C   UNL     1      11.652  -2.025 -20.063  1.00  0.00     0.210 C 
HETATM    2  O   UNL     1      11.568  -1.152 -18.939  1.00  0.00    -0.356 OA
ENDROOT
BRANCH   2   3
HETATM    3  C   UNL     1      12.385  -1.461 -17.888  1.00  0.00     0.068 A 
HETATM    4  C   UNL     1      12.472  -0.740 -16.700  1.00  0.00     0.037 A 
HETATM    5  C   UNL     1      13.359  -1.148 -15.696  1.00  0.00     0.018 A 
HETATM    6  C   UNL     1      14.169  -2.286 -15.857  1.00  0.00     0.012 A 
HETATM    7  C   UNL     1      14.053  -3.026 -17.037  1.00  0.00     0.018 A 
HETATM    8  C   UNL     1      13.158  -2.617 -18.041  1.00  0.00     0.037 A 
BRANCH   6   9
HETATM    9  C   UNL     1      15.127  -2.637 -14.753  1.00  0.00     0.183 C 
HETATM   10  O   UNL     1      16.052  -1.863 -14.497  1.00  0.00    -0.290 OA
BRANCH   9  11
HETATM   11  C   UNL     1      14.956  -3.957 -13.998  1.00  0.00     0.262 C 
BRANCH  11  12
HETATM   12  O   UNL     1      16.177  -4.722 -13.943  1.00  0.00    -0.312 OA
BRANCH  12  13
HETATM   13  C   UNL     1      16.430  -5.512 -15.028  1.00  0.00     0.277 C 
HETATM   14  O   UNL     1      15.569  -6.127 -15.639  1.00  0.00    -0.263 OA
BRANCH  13  15
HETATM   15  C   UNL     1      17.904  -5.498 -15.429  1.00  0.00     0.245 C 
BRANCH  15  16
HETATM   16  N   UNL     1      18.190  -4.557 -16.505  1.00  0.00    -0.278 N 
HETATM   17  C   UNL     1      18.806  -3.351 -16.240  1.00  0.00     0.234 C 
HETATM   18  O   UNL     1      18.975  -2.818 -15.158  1.00  0.00    -0.272 OA
HETATM   19  C   UNL     1      19.191  -2.833 -17.589  1.00  0.00     0.122 C 
HETATM   20  C   UNL     1      17.858  -3.187 -18.275  1.00  0.00     0.122 C 
HETATM   21  C   UNL     1      19.582  -1.387 -17.852  1.00  0.00     0.086 C 
HETATM   22  C   UNL     1      17.837  -4.651 -17.861  1.00  0.00     0.234 C 
HETATM   23  C   UNL     1      17.590  -2.201 -19.431  1.00  0.00     0.086 C 
HETATM   24  O   UNL     1      17.533  -5.622 -18.510  1.00  0.00    -0.272 OA
HETATM   25  C   UNL     1      18.835  -1.743 -20.212  1.00  0.00    -0.025 A 
HETATM   26  C   UNL     1      17.234  -0.927 -18.560  1.00  0.00    -0.025 A 
HETATM   27 BR   UNL     1      16.143  -2.849 -20.525  1.00  0.00    -0.074 Br
HETATM   28  C   UNL     1      18.883  -1.429 -21.578  1.00  0.00     0.010 A 
HETATM   29  C   UNL     1      19.921  -1.331 -19.372  1.00  0.00    -0.025 A 
HETATM   30  C   UNL     1      20.014  -0.810 -22.122  1.00  0.00     0.001 A 
HETATM   31  C   UNL     1      21.111  -0.511 -21.317  1.00  0.00     0.001 A 
HETATM   32  C   UNL     1      21.067  -0.762 -19.945  1.00  0.00     0.010 A 
HETATM   33  C   UNL     1      18.310  -0.550 -17.665  1.00  0.00    -0.025 A 
HETATM   34  C   UNL     1      16.003  -0.285 -18.465  1.00  0.00     0.010 A 
HETATM   35  C   UNL     1      18.104   0.420 -16.691  1.00  0.00     0.010 A 
HETATM   36  C   UNL     1      16.861   1.036 -16.603  1.00  0.00     0.001 A 
HETATM   37  C   UNL     1      15.828   0.695 -17.485  1.00  0.00     0.001 A 
HETATM   38 BR   UNL     1      21.094  -0.897 -16.741  1.00  0.00    -0.074 Br
ENDBRANCH  15  16
ENDBRANCH  13  15
ENDBRANCH  12  13
ENDBRANCH  11  12
ENDBRANCH   9  11
ENDBRANCH   6   9
ENDBRANCH   2   3
TORSDOF 7
ENDMDL
MODEL 4
REMARK VINA RESULT:      -7.2      2.049      5.454
REMARK  7 active torsions:
REMARK  status: ('A' for Active; 'I' for Inactive)
REMARK    1  A    between atoms: O_2  and  C_3 
REMARK    2  A    between atoms: C_6  and  C_9 
REMARK    3  A    between atoms: C_9  and  C_11 
REMARK    4  A    between atoms: C_11  and  O_12 
REMARK    5  A    between atoms: O_12  and  C_13 
REMARK    6  A    between atoms: C_13  and  C_15 
REMARK    7  A    between atoms: C_15  and  N_16 
ROOT
HETATM    1  C   UNL     1      17.086  -9.126 -18.437  1.00  0.00     0.210 C 
HETATM    2  O   UNL     1      16.875  -9.007 -17.032  1.00  0.00    -0.356 OA
ENDROOT
BRANCH   2   3
HETATM    3  C   UNL     1      16.303  -7.836 -16.618  1.00  0.00     0.068 A 
HETATM    4  C   UNL     1      15.216  -7.737 -15.753  1.00  0.00     0.037 A 
HETATM    5  C   UNL     1      14.707  -6.478 -15.410  1.00  0.00     0.018 A 
HETATM    6  C   UNL     1      15.277  -5.298 -15.918  1.00  0.00     0.012 A 
HETATM    7  C   UNL     1      16.389  -5.402 -16.759  1.00  0.00     0.018 A 
HETATM    8  C   UNL     1      16.901  -6.667 -17.097  1.00  0.00     0.037 A 
BRANCH   6   9
HETATM    9  C   UNL     1      14.648  -3.986 -15.539  1.00  0.00     0.183 C 
HETATM   10  O   UNL     1      13.476  -3.772 -15.856  1.00  0.00    -0.290 OA
BRANCH   9  11
HETATM   11  C   UNL     1      15.483  -2.935 -14.802  1.00  0.00     0.262 C 
BRANCH  11  12
HETATM   12  O   UNL     1      15.610  -1.710 -15.551  1.00  0.00    -0.312 OA
BRANCH  12  13
HETATM   13  C   UNL     1      16.575  -1.703 -16.517  1.00  0.00     0.277 C 
HETATM   14  O   UNL     1      17.652  -2.269 -16.408  1.00  0.00    -0.263 OA
BRANCH  13  15
HETATM   15  C   UNL     1      16.137  -0.954 -17.774  1.00  0.00     0.245 C 
BRANCH  15  16
HETATM   16  N   UNL     1      15.610  -1.839 -18.806  1.00  0.00    -0.278 N 
HETATM   17  C   UNL     1      14.248  -1.973 -18.988  1.00  0.00     0.234 C 
HETATM   18  O   UNL     1      13.353  -1.610 -18.246  1.00  0.00    -0.272 OA
HETATM   19  C   UNL     1      14.124  -2.695 -20.292  1.00  0.00     0.122 C 
HETATM   20  C   UNL     1      15.237  -3.720 -20.006  1.00  0.00     0.122 C 
HETATM   21  C   UNL     1      12.846  -3.380 -20.753  1.00  0.00     0.086 C 
HETATM   22  C   UNL     1      16.317  -2.706 -19.654  1.00  0.00     0.234 C 
HETATM   23  C   UNL     1      14.942  -5.033 -20.760  1.00  0.00     0.086 C 
HETATM   24  O   UNL     1      17.481  -2.693 -19.969  1.00  0.00    -0.272 OA
HETATM   25  C   UNL     1      14.294  -4.869 -22.147  1.00  0.00    -0.025 A 
HETATM   26  C   UNL     1      13.734  -5.536 -19.866  1.00  0.00    -0.025 A 
HETATM   27 BR   UNL     1      16.492  -6.176 -20.722  1.00  0.00    -0.074 Br
HETATM   28  C   UNL     1      14.491  -5.707 -23.254  1.00  0.00     0.010 A 
HETATM   29  C   UNL     1      13.186  -3.960 -22.160  1.00  0.00    -0.025 A 
HETATM   30  C   UNL     1      13.677  -5.586 -24.386  1.00  0.00     0.001 A 
HETATM   31  C   UNL     1      12.669  -4.626 -24.431  1.00  0.00     0.001 A 
HETATM   32  C   UNL     1      12.416  -3.818 -23.322  1.00  0.00     0.010 A 
HETATM   33  C   UNL     1      12.641  -4.587 -19.829  1.00  0.00    -0.025 A 
HETATM   34  C   UNL     1      13.705  -6.654 -19.038  1.00  0.00     0.010 A 
HETATM   35  C   UNL     1      11.584  -4.769 -18.944  1.00  0.00     0.010 A 
HETATM   36  C   UNL     1      11.583  -5.884 -18.114  1.00  0.00     0.001 A 
HETATM   37  C   UNL     1      12.624  -6.819 -18.167  1.00  0.00     0.001 A 
HETATM   38 BR   UNL     1      11.393  -2.097 -20.816  1.00  0.00    -0.074 Br
ENDBRANCH  15  16
ENDBRANCH  13  15
ENDBRANCH  12  13
ENDBRANCH  11  12
ENDBRANCH   9  11
ENDBRANCH   6   9
ENDBRANCH   2   3
TORSDOF 7
ENDMDL
MODEL 5
REMARK VINA RESULT:      -7.2      2.362      3.427
REMARK  7 active torsions:
REMARK  status: ('A' for Active; 'I' for Inactive)
REMARK    1  A    between atoms: O_2  and  C_3 
REMARK    2  A    between atoms: C_6  and  C_9 
REMARK    3  A    between atoms: C_9  and  C_11 
REMARK    4  A    between atoms: C_11  and  O_12 
REMARK    5  A    between atoms: O_12  and  C_13 
REMARK    6  A    between atoms: C_13  and  C_15 
REMARK    7  A    between atoms: C_15  and  N_16 
ROOT
HETATM    1  C   UNL     1      11.301  -2.600 -21.105  1.00  0.00     0.210 C 
HETATM    2  O   UNL     1      11.122  -1.492 -20.225  1.00  0.00    -0.356 OA
ENDROOT
BRANCH   2   3
HETATM    3  C   UNL     1      11.837  -1.541 -19.061  1.00  0.00     0.068 A 
HETATM    4  C   UNL     1      12.835  -2.468 -18.770  1.00  0.00     0.037 A 
HETATM    5  C   UNL     1      13.491  -2.426 -17.533  1.00  0.00     0.018 A 
HETATM    6  C   UNL     1      13.168  -1.455 -16.569  1.00  0.00     0.012 A 
HETATM    7  C   UNL     1      12.189  -0.506 -16.879  1.00  0.00     0.018 A 
HETATM    8  C   UNL     1      11.536  -0.547 -18.124  1.00  0.00     0.037 A 
BRANCH   6   9
HETATM    9  C   UNL     1      13.885  -1.501 -15.249  1.00  0.00     0.183 C 
HETATM   10  O   UNL     1      14.544  -0.521 -14.894  1.00  0.00    -0.290 OA
BRANCH   9  11
HETATM   11  C   UNL     1      13.812  -2.768 -14.394  1.00  0.00     0.262 C 
BRANCH  11  12
HETATM   12  O   UNL     1      15.067  -3.071 -13.751  1.00  0.00    -0.312 OA
BRANCH  12  13
HETATM   13  C   UNL     1      15.922  -3.862 -14.463  1.00  0.00     0.277 C 
HETATM   14  O   UNL     1      16.732  -3.434 -15.271  1.00  0.00    -0.263 OA
BRANCH  13  15
HETATM   15  C   UNL     1      15.794  -5.338 -14.095  1.00  0.00     0.245 C 
BRANCH  15  16
HETATM   16  N   UNL     1      15.228  -6.144 -15.170  1.00  0.00    -0.278 N 
HETATM   17  C   UNL     1      16.050  -6.829 -16.042  1.00  0.00     0.234 C 
HETATM   18  O   UNL     1      17.250  -6.698 -16.200  1.00  0.00    -0.272 OA
HETATM   19  C   UNL     1      15.122  -7.748 -16.772  1.00  0.00     0.122 C 
HETATM   20  C   UNL     1      14.015  -6.701 -16.997  1.00  0.00     0.122 C 
HETATM   21  C   UNL     1      15.489  -8.453 -18.069  1.00  0.00     0.086 C 
HETATM   22  C   UNL     1      13.881  -6.279 -15.540  1.00  0.00     0.234 C 
HETATM   23  C   UNL     1      13.239  -7.034 -18.288  1.00  0.00     0.086 C 
HETATM   24  O   UNL     1      12.881  -6.058 -14.901  1.00  0.00    -0.272 OA
HETATM   25  C   UNL     1      13.040  -8.533 -18.574  1.00  0.00    -0.025 A 
HETATM   26  C   UNL     1      14.358  -6.623 -19.332  1.00  0.00    -0.025 A 
HETATM   27 BR   UNL     1      11.633  -5.973 -18.381  1.00  0.00    -0.074 Br
HETATM   28  C   UNL     1      11.935  -9.112 -19.213  1.00  0.00     0.010 A 
HETATM   29  C   UNL     1      14.237  -9.309 -18.430  1.00  0.00    -0.025 A 
HETATM   30  C   UNL     1      11.972 -10.452 -19.615  1.00  0.00     0.001 A 
HETATM   31  C   UNL     1      13.102 -11.230 -19.374  1.00  0.00     0.001 A 
HETATM   32  C   UNL     1      14.235 -10.664 -18.790  1.00  0.00     0.010 A 
HETATM   33  C   UNL     1      15.588  -7.364 -19.145  1.00  0.00    -0.025 A 
HETATM   34  C   UNL     1      14.319  -5.570 -20.241  1.00  0.00     0.010 A 
HETATM   35  C   UNL     1      16.738  -7.002 -19.839  1.00  0.00     0.010 A 
HETATM   36  C   UNL     1      16.680  -5.935 -20.729  1.00  0.00     0.001 A 
HETATM   37  C   UNL     1      15.485  -5.236 -20.934  1.00  0.00     0.001 A 
HETATM   38 BR   UNL     1      17.074  -9.538 -17.807  1.00  0.00    -0.074 Br
ENDBRANCH  15  16
ENDBRANCH  13  15
ENDBRANCH  12  13
ENDBRANCH  11  12
ENDBRANCH   9  11
ENDBRANCH   6   9
ENDBRANCH   2   3
TORSDOF 7
ENDMDL
MODEL 6
REMARK VINA RESULT:      -7.0      2.970      5.216
REMARK  7 active torsions:
REMARK  status: ('A' for Active; 'I' for Inactive)
REMARK    1  A    between atoms: O_2  and  C_3 
REMARK    2  A    between atoms: C_6  and  C_9 
REMARK    3  A    between atoms: C_9  and  C_11 
REMARK    4  A    between atoms: C_11  and  O_12 
REMARK    5  A    between atoms: O_12  and  C_13 
REMARK    6  A    between atoms: C_13  and  C_15 
REMARK    7  A    between atoms: C_15  and  N_16 
ROOT
HETATM    1  C   UNL     1      13.021  -4.814 -13.820  1.00  0.00     0.210 C 
HETATM    2  O   UNL     1      14.414  -5.104 -13.727  1.00  0.00    -0.356 OA
ENDROOT
BRANCH   2   3
HETATM    3  C   UNL     1      15.002  -5.551 -14.878  1.00  0.00     0.068 A 
HETATM    4  C   UNL     1      16.238  -5.132 -15.362  1.00  0.00     0.037 A 
HETATM    5  C   UNL     1      16.734  -5.655 -16.563  1.00  0.00     0.018 A 
HETATM    6  C   UNL     1      16.007  -6.608 -17.298  1.00  0.00     0.012 A 
HETATM    7  C   UNL     1      14.782  -7.050 -16.790  1.00  0.00     0.018 A 
HETATM    8  C   UNL     1      14.290  -6.528 -15.581  1.00  0.00     0.037 A 
BRANCH   6   9
HETATM    9  C   UNL     1      16.584  -7.090 -18.600  1.00  0.00     0.183 C 
HETATM   10  O   UNL     1      16.564  -6.338 -19.577  1.00  0.00    -0.290 OA
BRANCH   9  11
HETATM   11  C   UNL     1      17.148  -8.510 -18.695  1.00  0.00     0.262 C 
BRANCH  11  12
HETATM   12  O   UNL     1      16.875  -9.126 -19.970  1.00  0.00    -0.312 OA
BRANCH  12  13
HETATM   13  C   UNL     1      15.692  -9.801 -20.060  1.00  0.00     0.277 C 
HETATM   14  O   UNL     1      15.239 -10.506 -19.171  1.00  0.00    -0.263 OA
BRANCH  13  15
HETATM   15  C   UNL     1      14.966  -9.532 -21.377  1.00  0.00     0.245 C 
BRANCH  15  16
HETATM   16  N   UNL     1      14.106  -8.357 -21.320  1.00  0.00    -0.278 N 
HETATM   17  C   UNL     1      14.413  -7.225 -22.048  1.00  0.00     0.234 C 
HETATM   18  O   UNL     1      15.461  -6.953 -22.605  1.00  0.00    -0.272 OA
HETATM   19  C   UNL     1      13.172  -6.393 -21.970  1.00  0.00     0.122 C 
HETATM   20  C   UNL     1      12.927  -6.624 -20.467  1.00  0.00     0.122 C 
HETATM   21  C   UNL     1      13.131  -4.912 -22.316  1.00  0.00     0.086 C 
HETATM   22  C   UNL     1      12.973  -8.145 -20.519  1.00  0.00     0.234 C 
HETATM   23  C   UNL     1      12.195  -5.406 -19.866  1.00  0.00     0.086 C 
HETATM   24  O   UNL     1      12.263  -8.947 -19.963  1.00  0.00    -0.272 OA
HETATM   25  C   UNL     1      11.160  -4.735 -20.787  1.00  0.00    -0.025 A 
HETATM   26  C   UNL     1      13.405  -4.384 -19.893  1.00  0.00    -0.025 A 
HETATM   27 BR   UNL     1      11.550  -5.832 -18.101  1.00  0.00    -0.074 Br
HETATM   28  C   UNL     1       9.974  -4.109 -20.377  1.00  0.00     0.010 A 
HETATM   29  C   UNL     1      11.644  -4.492 -22.114  1.00  0.00    -0.025 A 
HETATM   30  C   UNL     1       9.231  -3.341 -21.281  1.00  0.00     0.001 A 
HETATM   31  C   UNL     1       9.654  -3.199 -22.601  1.00  0.00     0.001 A 
HETATM   32  C   UNL     1      10.859  -3.764 -23.019  1.00  0.00     0.010 A 
HETATM   33  C   UNL     1      13.934  -4.188 -21.227  1.00  0.00    -0.025 A 
HETATM   34  C   UNL     1      14.064  -3.826 -18.802  1.00  0.00     0.010 A 
HETATM   35  C   UNL     1      15.115  -3.480 -21.417  1.00  0.00     0.010 A 
HETATM   36  C   UNL     1      15.766  -2.946 -20.310  1.00  0.00     0.001 A 
HETATM   37  C   UNL     1      15.243  -3.108 -19.022  1.00  0.00     0.001 A 
HETATM   38 BR   UNL     1      13.733  -4.642 -24.140  1.00  0.00    -0.074 Br
ENDBRANCH  15  16
ENDBRANCH  13  15
ENDBRANCH  12  13
ENDBRANCH  11  12
ENDBRANCH   9  11
ENDBRANCH   6   9
ENDBRANCH   2   3
TORSDOF 7
ENDMDL
MODEL 7
REMARK VINA RESULT:      -6.9      2.438      5.061
REMARK  7 active torsions:
REMARK  status: ('A' for Active; 'I' for Inactive)
REMARK    1  A    between atoms: O_2  and  C_3 
REMARK    2  A    between atoms: C_6  and  C_9 
REMARK    3  A    between atoms: C_9  and  C_11 
REMARK    4  A    between atoms: C_11  and  O_12 
REMARK    5  A    between atoms: O_12  and  C_13 
REMARK    6  A    between atoms: C_13  and  C_15 
REMARK    7  A    between atoms: C_15  and  N_16 
ROOT
HETATM    1  C   UNL     1      13.439 -10.187 -18.251  1.00  0.00     0.210 C 
HETATM    2  O   UNL     1      14.704  -9.749 -18.744  1.00  0.00    -0.356 OA
ENDROOT
BRANCH   2   3
HETATM    3  C   UNL     1      15.344  -8.814 -17.979  1.00  0.00     0.068 A 
HETATM    4  C   UNL     1      15.232  -8.696 -16.596  1.00  0.00     0.037 A 
HETATM    5  C   UNL     1      15.929  -7.685 -15.921  1.00  0.00     0.018 A 
HETATM    6  C   UNL     1      16.754  -6.781 -16.612  1.00  0.00     0.012 A 
HETATM    7  C   UNL     1      16.889  -6.925 -17.997  1.00  0.00     0.018 A 
HETATM    8  C   UNL     1      16.193  -7.944 -18.671  1.00  0.00     0.037 A 
BRANCH   6   9
HETATM    9  C   UNL     1      17.436  -5.698 -15.825  1.00  0.00     0.183 C 
HETATM   10  O   UNL     1      18.396  -5.108 -16.328  1.00  0.00    -0.290 OA
BRANCH   9  11
HETATM   11  C   UNL     1      16.951  -5.375 -14.410  1.00  0.00     0.262 C 
BRANCH  11  12
HETATM   12  O   UNL     1      16.216  -4.136 -14.349  1.00  0.00    -0.312 OA
BRANCH  12  13
HETATM   13  C   UNL     1      14.931  -4.231 -13.898  1.00  0.00     0.277 C 
HETATM   14  O   UNL     1      14.615  -4.774 -12.850  1.00  0.00    -0.263 OA
BRANCH  13  15
HETATM   15  C   UNL     1      13.935  -3.531 -14.820  1.00  0.00     0.245 C 
BRANCH  15  16
HETATM   16  N   UNL     1      13.830  -4.166 -16.128  1.00  0.00    -0.278 N 
HETATM   17  C   UNL     1      14.247  -3.505 -17.266  1.00  0.00     0.234 C 
HETATM   18  O   UNL     1      14.513  -2.324 -17.392  1.00  0.00    -0.272 OA
HETATM   19  C   UNL     1      14.267  -4.568 -18.319  1.00  0.00     0.122 C 
HETATM   20  C   UNL     1      12.919  -5.201 -17.922  1.00  0.00     0.122 C 
HETATM   21  C   UNL     1      14.321  -4.271 -19.810  1.00  0.00     0.086 C 
HETATM   22  C   UNL     1      13.253  -5.404 -16.451  1.00  0.00     0.234 C 
HETATM   23  C   UNL     1      12.258  -5.836 -19.163  1.00  0.00     0.086 C 
HETATM   24  O   UNL     1      13.021  -6.353 -15.742  1.00  0.00    -0.272 OA
HETATM   25  C   UNL     1      13.224  -6.490 -20.167  1.00  0.00    -0.025 A 
HETATM   26  C   UNL     1      11.838  -4.498 -19.901  1.00  0.00    -0.025 A 
HETATM   27 BR   UNL     1      10.779  -6.947 -18.622  1.00  0.00    -0.074 Br
HETATM   28  C   UNL     1      12.954  -7.615 -20.959  1.00  0.00     0.010 A 
HETATM   29  C   UNL     1      14.351  -5.669 -20.498  1.00  0.00    -0.025 A 
HETATM   30  C   UNL     1      13.825  -7.978 -21.992  1.00  0.00     0.001 A 
HETATM   31  C   UNL     1      14.977  -7.234 -22.238  1.00  0.00     0.001 A 
HETATM   32  C   UNL     1      15.240  -6.079 -21.501  1.00  0.00     0.010 A 
HETATM   33  C   UNL     1      12.971  -3.641 -20.178  1.00  0.00    -0.025 A 
HETATM   34  C   UNL     1      10.548  -4.034 -20.138  1.00  0.00     0.010 A 
HETATM   35  C   UNL     1      12.774  -2.345 -20.643  1.00  0.00     0.010 A 
HETATM   36  C   UNL     1      11.475  -1.896 -20.856  1.00  0.00     0.001 A 
HETATM   37  C   UNL     1      10.378  -2.732 -20.617  1.00  0.00     0.001 A 
HETATM   38 BR   UNL     1      15.894  -3.214 -20.217  1.00  0.00    -0.074 Br
ENDBRANCH  15  16
ENDBRANCH  13  15
ENDBRANCH  12  13
ENDBRANCH  11  12
ENDBRANCH   9  11
ENDBRANCH   6   9
ENDBRANCH   2   3
TORSDOF 7
ENDMDL
MODEL 8
REMARK VINA RESULT:      -6.9      3.104      7.029
REMARK  7 active torsions:
REMARK  status: ('A' for Active; 'I' for Inactive)
REMARK    1  A    between atoms: O_2  and  C_3 
REMARK    2  A    between atoms: C_6  and  C_9 
REMARK    3  A    between atoms: C_9  and  C_11 
REMARK    4  A    between atoms: C_11  and  O_12 
REMARK    5  A    between atoms: O_12  and  C_13 
REMARK    6  A    between atoms: C_13  and  C_15 
REMARK    7  A    between atoms: C_15  and  N_16 
ROOT
HETATM    1  C   UNL     1      17.431  -7.028 -15.356  1.00  0.00     0.210 C 
HETATM    2  O   UNL     1      16.141  -6.955 -15.959  1.00  0.00    -0.356 OA
ENDROOT
BRANCH   2   3
HETATM    3  C   UNL     1      15.915  -7.838 -16.979  1.00  0.00     0.068 A 
HETATM    4  C   UNL     1      16.789  -8.084 -18.034  1.00  0.00     0.037 A 
HETATM    5  C   UNL     1      16.441  -9.005 -19.031  1.00  0.00     0.018 A 
HETATM    6  C   UNL     1      15.220  -9.699 -18.988  1.00  0.00     0.012 A 
HETATM    7  C   UNL     1      14.361  -9.473 -17.908  1.00  0.00     0.018 A 
HETATM    8  C   UNL     1      14.715  -8.552 -16.907  1.00  0.00     0.037 A 
BRANCH   6   9
HETATM    9  C   UNL     1      14.898 -10.639 -20.116  1.00  0.00     0.183 C 
HETATM   10  O   UNL     1      15.167 -11.836 -19.991  1.00  0.00    -0.290 OA
BRANCH   9  11
HETATM   11  C   UNL     1      14.279 -10.089 -21.403  1.00  0.00     0.262 C 
BRANCH  11  12
HETATM   12  O   UNL     1      15.200  -9.269 -22.150  1.00  0.00    -0.312 OA
BRANCH  12  13
HETATM   13  C   UNL     1      14.665  -8.590 -23.208  1.00  0.00     0.277 C 
HETATM   14  O   UNL     1      14.021  -9.118 -24.101  1.00  0.00    -0.263 OA
BRANCH  13  15
HETATM   15  C   UNL     1      14.913  -7.086 -23.119  1.00  0.00     0.245 C 
BRANCH  15  16
HETATM   16  N   UNL     1      14.608  -6.537 -21.803  1.00  0.00    -0.278 N 
HETATM   17  C   UNL     1      13.312  -6.529 -21.328  1.00  0.00     0.234 C 
HETATM   18  O   UNL     1      12.284  -6.729 -21.950  1.00  0.00    -0.272 OA
HETATM   19  C   UNL     1      13.456  -6.188 -19.879  1.00  0.00     0.122 C 
HETATM   20  C   UNL     1      14.491  -5.066 -20.088  1.00  0.00     0.122 C 
HETATM   21  C   UNL     1      12.301  -5.720 -19.008  1.00  0.00     0.086 C 
HETATM   22  C   UNL     1      15.474  -5.891 -20.907  1.00  0.00     0.234 C 
HETATM   23  C   UNL     1      14.357  -4.019 -18.963  1.00  0.00     0.086 C 
HETATM   24  O   UNL     1      16.678  -5.924 -20.842  1.00  0.00    -0.272 OA
HETATM   25  C   UNL     1      14.004  -4.580 -17.574  1.00  0.00    -0.025 A 
HETATM   26  C   UNL     1      12.993  -3.361 -19.432  1.00  0.00    -0.025 A 
HETATM   27 BR   UNL     1      15.869  -2.826 -18.993  1.00  0.00    -0.074 Br
HETATM   28  C   UNL     1      14.424  -4.058 -16.342  1.00  0.00     0.010 A 
HETATM   29  C   UNL     1      12.920  -5.518 -17.592  1.00  0.00    -0.025 A 
HETATM   30  C   UNL     1      13.856  -4.519 -15.149  1.00  0.00     0.001 A 
HETATM   31  C   UNL     1      12.877  -5.510 -15.169  1.00  0.00     0.001 A 
HETATM   32  C   UNL     1      12.402  -6.006 -16.384  1.00  0.00     0.010 A 
HETATM   33  C   UNL     1      11.913  -4.324 -19.511  1.00  0.00    -0.025 A 
HETATM   34  C   UNL     1      12.798  -2.067 -19.903  1.00  0.00     0.010 A 
HETATM   35  C   UNL     1      10.699  -3.970 -20.088  1.00  0.00     0.010 A 
HETATM   36  C   UNL     1      10.532  -2.675 -20.567  1.00  0.00     0.001 A 
HETATM   37  C   UNL     1      11.563  -1.734 -20.467  1.00  0.00     0.001 A 
HETATM   38 BR   UNL     1      10.889  -7.049 -19.012  1.00  0.00    -0.074 Br
ENDBRANCH  15  16
ENDBRANCH  13  15
ENDBRANCH  12  13
ENDBRANCH  11  12
ENDBRANCH   9  11
ENDBRANCH   6   9
ENDBRANCH   2   3
TORSDOF 7
ENDMDL
MODEL 9
REMARK VINA RESULT:      -6.9      4.655      7.523
REMARK  7 active torsions:
REMARK  status: ('A' for Active; 'I' for Inactive)
REMARK    1  A    between atoms: O_2  and  C_3 
REMARK    2  A    between atoms: C_6  and  C_9 
REMARK    3  A    between atoms: C_9  and  C_11 
REMARK    4  A    between atoms: C_11  and  O_12 
REMARK    5  A    between atoms: O_12  and  C_13 
REMARK    6  A    between atoms: C_13  and  C_15 
REMARK    7  A    between atoms: C_15  and  N_16 
ROOT
HETATM    1  C   UNL     1      13.817  -2.545 -14.406  1.00  0.00     0.210 C 
HETATM    2  O   UNL     1      15.225  -2.448 -14.611  1.00  0.00    -0.356 OA
ENDROOT
BRANCH   2   3
HETATM    3  C   UNL     1      15.689  -1.206 -14.947  1.00  0.00     0.068 A 
HETATM    4  C   UNL     1      15.003  -0.278 -15.726  1.00  0.00     0.037 A 
HETATM    5  C   UNL     1      15.588   0.962 -16.015  1.00  0.00     0.018 A 
HETATM    6  C   UNL     1      16.863   1.298 -15.528  1.00  0.00     0.012 A 
HETATM    7  C   UNL     1      17.533   0.375 -14.719  1.00  0.00     0.018 A 
HETATM    8  C   UNL     1      16.941  -0.866 -14.426  1.00  0.00     0.037 A 
BRANCH   6   9
HETATM    9  C   UNL     1      17.443   2.629 -15.916  1.00  0.00     0.183 C 
HETATM   10  O   UNL     1      18.523   2.973 -15.432  1.00  0.00    -0.290 OA
BRANCH   9  11
HETATM   11  C   UNL     1      16.668   3.540 -16.872  1.00  0.00     0.262 C 
BRANCH  11  12
HETATM   12  O   UNL     1      17.528   4.201 -17.821  1.00  0.00    -0.312 OA
BRANCH  12  13
HETATM   13  C   UNL     1      17.292   3.915 -19.135  1.00  0.00     0.277 C 
HETATM   14  O   UNL     1      16.302   4.288 -19.746  1.00  0.00    -0.263 OA
BRANCH  13  15
HETATM   15  C   UNL     1      18.431   3.123 -19.772  1.00  0.00     0.245 C 
BRANCH  15  16
HETATM   16  N   UNL     1      18.627   1.816 -19.158  1.00  0.00    -0.278 N 
HETATM   17  C   UNL     1      19.835   1.486 -18.576  1.00  0.00     0.234 C 
HETATM   18  O   UNL     1      20.900   2.067 -18.680  1.00  0.00    -0.272 OA
HETATM   19  C   UNL     1      19.543   0.233 -17.813  1.00  0.00     0.122 C 
HETATM   20  C   UNL     1      18.712  -0.434 -18.926  1.00  0.00     0.122 C 
HETATM   21  C   UNL     1      20.623  -0.703 -17.292  1.00  0.00     0.086 C 
HETATM   22  C   UNL     1      17.745   0.724 -19.133  1.00  0.00     0.234 C 
HETATM   23  C   UNL     1      18.835  -1.968 -18.818  1.00  0.00     0.086 C 
HETATM   24  O   UNL     1      16.550   0.697 -19.298  1.00  0.00    -0.272 OA
HETATM   25  C   UNL     1      18.914  -2.527 -17.387  1.00  0.00    -0.025 A 
HETATM   26  C   UNL     1      20.327  -2.108 -19.333  1.00  0.00    -0.025 A 
HETATM   27 BR   UNL     1      17.521  -2.812 -19.945  1.00  0.00    -0.074 Br
HETATM   28  C   UNL     1      18.407  -3.761 -16.953  1.00  0.00     0.010 A 
HETATM   29  C   UNL     1      19.851  -1.836 -16.550  1.00  0.00    -0.025 A 
HETATM   30  C   UNL     1      18.738  -4.256 -15.687  1.00  0.00     0.001 A 
HETATM   31  C   UNL     1      19.564  -3.524 -14.837  1.00  0.00     0.001 A 
HETATM   32  C   UNL     1      20.127  -2.321 -15.265  1.00  0.00     0.010 A 
HETATM   33  C   UNL     1      21.264  -1.356 -18.523  1.00  0.00    -0.025 A 
HETATM   34  C   UNL     1      20.762  -2.710 -20.509  1.00  0.00     0.010 A 
HETATM   35  C   UNL     1      22.583  -1.203 -18.936  1.00  0.00     0.010 A 
HETATM   36  C   UNL     1      22.991  -1.800 -20.124  1.00  0.00     0.001 A 
HETATM   37  C   UNL     1      22.096  -2.552 -20.894  1.00  0.00     0.001 A 
HETATM   38 BR   UNL     1      21.825   0.263 -16.117  1.00  0.00    -0.074 Br
ENDBRANCH  15  16
ENDBRANCH  13  15
ENDBRANCH  12  13
ENDBRANCH  11  12
ENDBRANCH   9  11
ENDBRANCH   6   9
ENDBRANCH   2   3
TORSDOF 7
ENDMDL
