MODEL 1
REMARK VINA RESULT:      -6.7      0.000      0.000
REMARK  4 active torsions:
REMARK  status: ('A' for Active; 'I' for Inactive)
REMARK    1  A    between atoms: C_6  and  C_7 
REMARK    2  A    between atoms: C_7  and  C_8 
REMARK    3  A    between atoms: C_8  and  O_10 
REMARK    4  A    between atoms: O_10  and  C_11 
ROOT
HETATM    1  C   UNL     1      24.728 -12.151 -18.482  1.00  0.00     0.009 A 
HETATM    2  C   UNL     1      23.946 -13.195 -17.985  1.00  0.00     0.024 A 
HETATM    3  C   UNL     1      23.922 -14.422 -18.645  1.00  0.00     0.034 A 
HETATM    4  C   UNL     1      24.660 -14.607 -19.811  1.00  0.00     0.024 A 
HETATM    5  C   UNL     1      25.442 -13.564 -20.311  1.00  0.00     0.009 A 
HETATM    6  C   UNL     1      25.495 -12.331 -19.643  1.00  0.00    -0.049 A 
HETATM    7 CL   UNL     1      22.992 -15.721 -18.008  1.00  0.00    -0.084 Cl
ENDROOT
BRANCH   6   8
HETATM    8  C   UNL     1      26.434 -11.256 -20.116  1.00  0.00     0.150 C 
BRANCH   8   9
HETATM    9  C   UNL     1      26.098 -10.637 -21.452  1.00  0.00     0.268 C 
HETATM   10  O   UNL     1      26.884 -10.498 -22.380  1.00  0.00    -0.265 OA
BRANCH   9  11
HETATM   11  O   UNL     1      24.744 -10.326 -21.481  1.00  0.00    -0.279 OA
BRANCH  11  12
HETATM   12  C   UNL     1      24.465  -8.963 -21.654  1.00  0.00     0.079 A 
HETATM   13  C   UNL     1      23.422  -8.533 -22.481  1.00  0.00     0.039 A 
HETATM   14  C   UNL     1      23.082  -7.181 -22.519  1.00  0.00     0.022 A 
HETATM   15  C   UNL     1      23.779  -6.272 -21.725  1.00  0.00     0.011 A 
HETATM   16  C   UNL     1      24.813  -6.703 -20.890  1.00  0.00     0.022 A 
HETATM   17 BR   UNL     1      23.297  -4.445 -21.764  1.00  0.00    -0.051 Br
HETATM   18  C   UNL     1      25.155  -8.057 -20.850  1.00  0.00     0.039 A 
ENDBRANCH  11  12
ENDBRANCH   9  11
ENDBRANCH   8   9
ENDBRANCH   6   8
TORSDOF 4
ENDMDL
MODEL 2
REMARK VINA RESULT:      -6.5      4.311      7.096
REMARK  4 active torsions:
REMARK  status: ('A' for Active; 'I' for Inactive)
REMARK    1  A    between atoms: C_6  and  C_7 
REMARK    2  A    between atoms: C_7  and  C_8 
REMARK    3  A    between atoms: C_8  and  O_10 
REMARK    4  A    between atoms: O_10  and  C_11 
ROOT
HETATM    1  C   UNL     1      25.734  -8.105 -20.147  1.00  0.00     0.009 A 
HETATM    2  C   UNL     1      24.973  -7.005 -20.549  1.00  0.00     0.024 A 
HETATM    3  C   UNL     1      24.009  -7.153 -21.544  1.00  0.00     0.034 A 
HETATM    4  C   UNL     1      23.814  -8.388 -22.156  1.00  0.00     0.024 A 
HETATM    5  C   UNL     1      24.574  -9.488 -21.756  1.00  0.00     0.009 A 
HETATM    6  C   UNL     1      25.531  -9.360 -20.738  1.00  0.00    -0.049 A 
HETATM    7 CL   UNL     1      23.043  -5.808 -22.009  1.00  0.00    -0.084 Cl
ENDROOT
BRANCH   6   8
HETATM    8  C   UNL     1      26.257 -10.574 -20.228  1.00  0.00     0.150 C 
BRANCH   8   9
HETATM    9  C   UNL     1      25.503 -11.879 -20.333  1.00  0.00     0.268 C 
HETATM   10  O   UNL     1      25.765 -12.780 -21.119  1.00  0.00    -0.265 OA
BRANCH   9  11
HETATM   11  O   UNL     1      24.525 -11.919 -19.348  1.00  0.00    -0.279 OA
BRANCH  11  12
HETATM   12  C   UNL     1      24.749 -12.872 -18.345  1.00  0.00     0.079 A 
HETATM   13  C   UNL     1      25.466 -12.555 -17.187  1.00  0.00     0.039 A 
HETATM   14  C   UNL     1      25.549 -13.483 -16.149  1.00  0.00     0.022 A 
HETATM   15  C   UNL     1      24.907 -14.714 -16.272  1.00  0.00     0.011 A 
HETATM   16  C   UNL     1      24.180 -15.026 -17.423  1.00  0.00     0.022 A 
HETATM   17 BR   UNL     1      25.003 -15.957 -14.851  1.00  0.00    -0.051 Br
HETATM   18  C   UNL     1      24.095 -14.099 -18.465  1.00  0.00     0.039 A 
ENDBRANCH  11  12
ENDBRANCH   9  11
ENDBRANCH   8   9
ENDBRANCH   6   8
TORSDOF 4
ENDMDL
MODEL 3
REMARK VINA RESULT:      -6.5      3.305      4.899
REMARK  4 active torsions:
REMARK  status: ('A' for Active; 'I' for Inactive)
REMARK    1  A    between atoms: C_6  and  C_7 
REMARK    2  A    between atoms: C_7  and  C_8 
REMARK    3  A    between atoms: C_8  and  O_10 
REMARK    4  A    between atoms: O_10  and  C_11 
ROOT
HETATM    1  C   UNL     1      25.081 -15.993 -16.454  1.00  0.00     0.009 A 
HETATM    2  C   UNL     1      25.643 -16.401 -15.242  1.00  0.00     0.024 A 
HETATM    3  C   UNL     1      25.831 -15.476 -14.217  1.00  0.00     0.034 A 
HETATM    4  C   UNL     1      25.479 -14.142 -14.400  1.00  0.00     0.024 A 
HETATM    5  C   UNL     1      24.918 -13.732 -15.611  1.00  0.00     0.009 A 
HETATM    6  C   UNL     1      24.700 -14.657 -16.644  1.00  0.00    -0.049 A 
HETATM    7 CL   UNL     1      26.484 -15.988 -12.710  1.00  0.00    -0.084 Cl
ENDROOT
BRANCH   6   8
HETATM    8  C   UNL     1      23.983 -14.235 -17.896  1.00  0.00     0.150 C 
BRANCH   8   9
HETATM    9  C   UNL     1      24.620 -14.673 -19.194  1.00  0.00     0.268 C 
HETATM   10  O   UNL     1      24.112 -15.441 -20.002  1.00  0.00    -0.265 OA
BRANCH   9  11
HETATM   11  O   UNL     1      25.829 -14.009 -19.354  1.00  0.00    -0.279 OA
BRANCH  11  12
HETATM   12  C   UNL     1      25.710 -12.625 -19.542  1.00  0.00     0.079 A 
HETATM   13  C   UNL     1      26.175 -11.718 -18.584  1.00  0.00     0.039 A 
HETATM   14  C   UNL     1      26.170 -10.352 -18.864  1.00  0.00     0.022 A 
HETATM   15  C   UNL     1      25.712  -9.905 -20.102  1.00  0.00     0.011 A 
HETATM   16  C   UNL     1      25.259 -10.810 -21.064  1.00  0.00     0.022 A 
HETATM   17 BR   UNL     1      25.731  -8.054 -20.485  1.00  0.00    -0.051 Br
HETATM   18  C   UNL     1      25.263 -12.180 -20.785  1.00  0.00     0.039 A 
ENDBRANCH  11  12
ENDBRANCH   9  11
ENDBRANCH   8   9
ENDBRANCH   6   8
TORSDOF 4
ENDMDL
MODEL 4
REMARK VINA RESULT:      -5.9      2.271      2.830
REMARK  4 active torsions:
REMARK  status: ('A' for Active; 'I' for Inactive)
REMARK    1  A    between atoms: C_6  and  C_7 
REMARK    2  A    between atoms: C_7  and  C_8 
REMARK    3  A    between atoms: C_8  and  O_10 
REMARK    4  A    between atoms: O_10  and  C_11 
ROOT
HETATM    1  C   UNL     1      25.244 -12.459 -15.997  1.00  0.00     0.009 A 
HETATM    2  C   UNL     1      25.016 -13.498 -15.092  1.00  0.00     0.024 A 
HETATM    3  C   UNL     1      25.568 -14.756 -15.325  1.00  0.00     0.034 A 
HETATM    4  C   UNL     1      26.331 -14.990 -16.466  1.00  0.00     0.024 A 
HETATM    5  C   UNL     1      26.560 -13.952 -17.372  1.00  0.00     0.009 A 
HETATM    6  C   UNL     1      26.031 -12.673 -17.138  1.00  0.00    -0.049 A 
HETATM    7 CL   UNL     1      25.322 -16.024 -14.189  1.00  0.00    -0.084 Cl
ENDROOT
BRANCH   6   8
HETATM    8  C   UNL     1      26.384 -11.532 -18.052  1.00  0.00     0.150 C 
BRANCH   8   9
HETATM    9  C   UNL     1      25.677 -11.521 -19.386  1.00  0.00     0.268 C 
HETATM   10  O   UNL     1      24.669 -12.164 -19.653  1.00  0.00    -0.265 OA
BRANCH   9  11
HETATM   11  O   UNL     1      26.305 -10.611 -20.227  1.00  0.00    -0.279 OA
BRANCH  11  12
HETATM   12  C   UNL     1      25.537  -9.480 -20.536  1.00  0.00     0.079 A 
HETATM   13  C   UNL     1      25.729  -8.265 -19.868  1.00  0.00     0.039 A 
HETATM   14  C   UNL     1      25.049  -7.126 -20.296  1.00  0.00     0.022 A 
HETATM   15  C   UNL     1      24.192  -7.206 -21.392  1.00  0.00     0.011 A 
HETATM   16  C   UNL     1      24.009  -8.415 -22.066  1.00  0.00     0.022 A 
HETATM   17 BR   UNL     1      23.291  -5.652 -21.981  1.00  0.00    -0.051 Br
HETATM   18  C   UNL     1      24.689  -9.558 -21.640  1.00  0.00     0.039 A 
ENDBRANCH  11  12
ENDBRANCH   9  11
ENDBRANCH   8   9
ENDBRANCH   6   8
TORSDOF 4
ENDMDL
MODEL 5
REMARK VINA RESULT:      -5.7     11.690     13.058
REMARK  4 active torsions:
REMARK  status: ('A' for Active; 'I' for Inactive)
REMARK    1  A    between atoms: C_6  and  C_7 
REMARK    2  A    between atoms: C_7  and  C_8 
REMARK    3  A    between atoms: C_8  and  O_10 
REMARK    4  A    between atoms: O_10  and  C_11 
ROOT
HETATM    1  C   UNL     1      16.518  -7.984 -29.409  1.00  0.00     0.009 A 
HETATM    2  C   UNL     1      16.565  -7.407 -30.680  1.00  0.00     0.024 A 
HETATM    3  C   UNL     1      16.567  -6.020 -30.814  1.00  0.00     0.034 A 
HETATM    4  C   UNL     1      16.502  -5.204 -29.688  1.00  0.00     0.024 A 
HETATM    5  C   UNL     1      16.454  -5.779 -28.417  1.00  0.00     0.009 A 
HETATM    6  C   UNL     1      16.476  -7.174 -28.265  1.00  0.00    -0.049 A 
HETATM    7 CL   UNL     1      16.668  -5.310 -32.378  1.00  0.00    -0.084 Cl
ENDROOT
BRANCH   6   8
HETATM    8  C   UNL     1      16.550  -7.783 -26.892  1.00  0.00     0.150 C 
BRANCH   8   9
HETATM    9  C   UNL     1      15.355  -8.610 -26.479  1.00  0.00     0.268 C 
HETATM   10  O   UNL     1      15.395  -9.793 -26.164  1.00  0.00    -0.265 OA
BRANCH   9  11
HETATM   11  O   UNL     1      14.230  -7.797 -26.441  1.00  0.00    -0.279 OA
BRANCH  11  12
HETATM   12  C   UNL     1      14.253  -6.821 -25.435  1.00  0.00     0.079 A 
HETATM   13  C   UNL     1      13.843  -5.507 -25.686  1.00  0.00     0.039 A 
HETATM   14  C   UNL     1      13.744  -4.600 -24.632  1.00  0.00     0.022 A 
HETATM   15  C   UNL     1      14.044  -5.014 -23.335  1.00  0.00     0.011 A 
HETATM   16  C   UNL     1      14.441  -6.329 -23.082  1.00  0.00     0.022 A 
HETATM   17 BR   UNL     1      13.884  -3.786 -21.908  1.00  0.00    -0.051 Br
HETATM   18  C   UNL     1      14.541  -7.240 -24.136  1.00  0.00     0.039 A 
ENDBRANCH  11  12
ENDBRANCH   9  11
ENDBRANCH   8   9
ENDBRANCH   6   8
TORSDOF 4
ENDMDL
MODEL 6
REMARK VINA RESULT:      -5.6     10.113     11.824
REMARK  4 active torsions:
REMARK  status: ('A' for Active; 'I' for Inactive)
REMARK    1  A    between atoms: C_6  and  C_7 
REMARK    2  A    between atoms: C_7  and  C_8 
REMARK    3  A    between atoms: C_8  and  O_10 
REMARK    4  A    between atoms: O_10  and  C_11 
ROOT
HETATM    1  C   UNL     1      20.167  -0.669 -22.046  1.00  0.00     0.009 A 
HETATM    2  C   UNL     1      18.934  -1.058 -21.518  1.00  0.00     0.024 A 
HETATM    3  C   UNL     1      18.877  -2.058 -20.549  1.00  0.00     0.034 A 
HETATM    4  C   UNL     1      20.042  -2.686 -20.117  1.00  0.00     0.024 A 
HETATM    5  C   UNL     1      21.276  -2.298 -20.644  1.00  0.00     0.009 A 
HETATM    6  C   UNL     1      21.351  -1.276 -21.603  1.00  0.00    -0.049 A 
HETATM    7 CL   UNL     1      17.363  -2.507 -19.869  1.00  0.00    -0.084 Cl
ENDROOT
BRANCH   6   8
HETATM    8  C   UNL     1      22.690  -0.780 -22.073  1.00  0.00     0.150 C 
BRANCH   8   9
HETATM    9  C   UNL     1      23.317   0.307 -21.231  1.00  0.00     0.268 C 
HETATM   10  O   UNL     1      22.930   0.645 -20.120  1.00  0.00    -0.265 OA
BRANCH   9  11
HETATM   11  O   UNL     1      24.439   0.799 -21.885  1.00  0.00    -0.279 OA
BRANCH  11  12
HETATM   12  C   UNL     1      24.163   1.755 -22.872  1.00  0.00     0.079 A 
HETATM   13  C   UNL     1      23.486   2.941 -22.568  1.00  0.00     0.039 A 
HETATM   14  C   UNL     1      23.353   3.930 -23.541  1.00  0.00     0.022 A 
HETATM   15  C   UNL     1      23.906   3.733 -24.805  1.00  0.00     0.011 A 
HETATM   16  C   UNL     1      24.592   2.555 -25.106  1.00  0.00     0.022 A 
HETATM   17 BR   UNL     1      23.743   5.090 -26.111  1.00  0.00    -0.051 Br
HETATM   18  C   UNL     1      24.727   1.561 -24.133  1.00  0.00     0.039 A 
ENDBRANCH  11  12
ENDBRANCH   9  11
ENDBRANCH   8   9
ENDBRANCH   6   8
TORSDOF 4
ENDMDL
MODEL 7
REMARK VINA RESULT:      -5.6      9.596     12.048
REMARK  4 active torsions:
REMARK  status: ('A' for Active; 'I' for Inactive)
REMARK    1  A    between atoms: C_6  and  C_7 
REMARK    2  A    between atoms: C_7  and  C_8 
REMARK    3  A    between atoms: C_8  and  O_10 
REMARK    4  A    between atoms: O_10  and  C_11 
ROOT
HETATM    1  C   UNL     1      21.276  -0.865 -21.951  1.00  0.00     0.009 A 
HETATM    2  C   UNL     1      21.865  -2.068 -22.345  1.00  0.00     0.024 A 
HETATM    3  C   UNL     1      22.716  -2.745 -21.474  1.00  0.00     0.034 A 
HETATM    4  C   UNL     1      23.000  -2.217 -20.217  1.00  0.00     0.024 A 
HETATM    5  C   UNL     1      22.413  -1.014 -19.821  1.00  0.00     0.009 A 
HETATM    6  C   UNL     1      21.534  -0.334 -20.679  1.00  0.00    -0.049 A 
HETATM    7 CL   UNL     1      23.407  -4.248 -21.944  1.00  0.00    -0.084 Cl
ENDROOT
BRANCH   6   8
HETATM    8  C   UNL     1      20.810   0.894 -20.199  1.00  0.00     0.150 C 
BRANCH   8   9
HETATM    9  C   UNL     1      21.175   2.182 -20.899  1.00  0.00     0.268 C 
HETATM   10  O   UNL     1      20.370   2.998 -21.332  1.00  0.00    -0.265 OA
BRANCH   9  11
HETATM   11  O   UNL     1      22.556   2.324 -20.901  1.00  0.00    -0.279 OA
BRANCH  11  12
HETATM   12  C   UNL     1      23.113   2.570 -22.164  1.00  0.00     0.079 A 
HETATM   13  C   UNL     1      23.034   3.834 -22.760  1.00  0.00     0.039 A 
HETATM   14  C   UNL     1      23.719   4.081 -23.949  1.00  0.00     0.022 A 
HETATM   15  C   UNL     1      24.484   3.070 -24.527  1.00  0.00     0.011 A 
HETATM   16  C   UNL     1      24.573   1.813 -23.927  1.00  0.00     0.022 A 
HETATM   17 BR   UNL     1      25.429   3.421 -26.126  1.00  0.00    -0.051 Br
HETATM   18  C   UNL     1      23.888   1.561 -22.735  1.00  0.00     0.039 A 
ENDBRANCH  11  12
ENDBRANCH   9  11
ENDBRANCH   8   9
ENDBRANCH   6   8
TORSDOF 4
ENDMDL
MODEL 8
REMARK VINA RESULT:      -5.6     10.125     13.294
REMARK  4 active torsions:
REMARK  status: ('A' for Active; 'I' for Inactive)
REMARK    1  A    between atoms: C_6  and  C_7 
REMARK    2  A    between atoms: C_7  and  C_8 
REMARK    3  A    between atoms: C_8  and  O_10 
REMARK    4  A    between atoms: O_10  and  C_11 
ROOT
HETATM    1  C   UNL     1      23.813   1.502 -22.563  1.00  0.00     0.009 A 
HETATM    2  C   UNL     1      24.495   1.651 -23.772  1.00  0.00     0.024 A 
HETATM    3  C   UNL     1      24.427   2.858 -24.465  1.00  0.00     0.034 A 
HETATM    4  C   UNL     1      23.665   3.912 -23.968  1.00  0.00     0.024 A 
HETATM    5  C   UNL     1      22.981   3.765 -22.760  1.00  0.00     0.009 A 
HETATM    6  C   UNL     1      23.060   2.563 -22.038  1.00  0.00    -0.049 A 
HETATM    7 CL   UNL     1      25.303   3.055 -25.932  1.00  0.00    -0.084 Cl
ENDROOT
BRANCH   6   8
HETATM    8  C   UNL     1      22.424   2.455 -20.680  1.00  0.00     0.150 C 
BRANCH   8   9
HETATM    9  C   UNL     1      20.968   2.052 -20.671  1.00  0.00     0.268 C 
HETATM   10  O   UNL     1      20.083   2.604 -21.312  1.00  0.00    -0.265 OA
BRANCH   9  11
HETATM   11  O   UNL     1      20.815   0.917 -19.885  1.00  0.00    -0.279 OA
BRANCH  11  12
HETATM   12  C   UNL     1      21.487  -0.216 -20.366  1.00  0.00     0.079 A 
HETATM   13  C   UNL     1      22.410  -0.905 -19.572  1.00  0.00     0.039 A 
HETATM   14  C   UNL     1      22.953  -2.106 -20.028  1.00  0.00     0.022 A 
HETATM   15  C   UNL     1      22.561  -2.614 -21.265  1.00  0.00     0.011 A 
HETATM   16  C   UNL     1      21.630  -1.933 -22.052  1.00  0.00     0.022 A 
HETATM   17 BR   UNL     1      23.282  -4.255 -21.865  1.00  0.00    -0.051 Br
HETATM   18  C   UNL     1      21.085  -0.729 -21.598  1.00  0.00     0.039 A 
ENDBRANCH  11  12
ENDBRANCH   9  11
ENDBRANCH   8   9
ENDBRANCH   6   8
TORSDOF 4
ENDMDL
MODEL 9
REMARK VINA RESULT:      -5.6     14.889     16.269
REMARK  4 active torsions:
REMARK  status: ('A' for Active; 'I' for Inactive)
REMARK    1  A    between atoms: C_6  and  C_7 
REMARK    2  A    between atoms: C_7  and  C_8 
REMARK    3  A    between atoms: C_8  and  O_10 
REMARK    4  A    between atoms: O_10  and  C_11 
ROOT
HETATM    1  C   UNL     1      13.494 -15.640 -32.048  1.00  0.00     0.009 A 
HETATM    2  C   UNL     1      12.101 -15.547 -32.036  1.00  0.00     0.024 A 
HETATM    3  C   UNL     1      11.409 -15.313 -33.222  1.00  0.00     0.034 A 
HETATM    4  C   UNL     1      12.101 -15.150 -34.419  1.00  0.00     0.024 A 
HETATM    5  C   UNL     1      13.494 -15.241 -34.433  1.00  0.00     0.009 A 
HETATM    6  C   UNL     1      14.203 -15.502 -33.250  1.00  0.00    -0.049 A 
HETATM    7 CL   UNL     1       9.691 -15.242 -33.213  1.00  0.00    -0.084 Cl
ENDROOT
BRANCH   6   8
HETATM    8  C   UNL     1      15.690 -15.722 -33.294  1.00  0.00     0.150 C 
BRANCH   8   9
HETATM    9  C   UNL     1      16.539 -14.493 -33.068  1.00  0.00     0.268 C 
HETATM   10  O   UNL     1      16.384 -13.418 -33.635  1.00  0.00    -0.265 OA
BRANCH   9  11
HETATM   11  O   UNL     1      17.464 -14.756 -32.066  1.00  0.00    -0.279 OA
BRANCH  11  12
HETATM   12  C   UNL     1      16.921 -14.811 -30.775  1.00  0.00     0.079 A 
HETATM   13  C   UNL     1      16.088 -13.797 -30.293  1.00  0.00     0.039 A 
HETATM   14  C   UNL     1      15.453 -13.951 -29.061  1.00  0.00     0.022 A 
HETATM   15  C   UNL     1      15.646 -15.120 -28.327  1.00  0.00     0.011 A 
HETATM   16  C   UNL     1      16.469 -16.138 -28.813  1.00  0.00     0.022 A 
HETATM   17 BR   UNL     1      14.763 -15.332 -26.669  1.00  0.00    -0.051 Br
HETATM   18  C   UNL     1      17.107 -15.987 -30.047  1.00  0.00     0.039 A 
ENDBRANCH  11  12
ENDBRANCH   9  11
ENDBRANCH   8   9
ENDBRANCH   6   8
TORSDOF 4
ENDMDL
