MODEL 1
REMARK VINA RESULT:      -7.0      0.000      0.000
REMARK  4 active torsions:
REMARK  status: ('A' for Active; 'I' for Inactive)
REMARK    1  A    between atoms: C_5  and  O_8 
REMARK    2  A    between atoms: O_8  and  C_9 
REMARK    3  A    between atoms: C_12  and  N_15 
REMARK       I    between atoms: N_15  and  C_16 
REMARK    4  A    between atoms: C_16  and  C_18 
ROOT
HETATM    1  C   UNL     1      25.270 -16.270 -12.630  1.00  0.00     0.048 C 
HETATM    2  C   UNL     1      25.855 -15.867 -13.953  1.00  0.00    -0.062 A 
HETATM    3  C   UNL     1      26.806 -14.846 -14.032  1.00  0.00     0.009 A 
HETATM    4  C   UNL     1      27.263 -14.408 -15.276  1.00  0.00     0.038 A 
HETATM    5  C   UNL     1      26.781 -14.984 -16.455  1.00  0.00     0.076 A 
HETATM    6  C   UNL     1      25.836 -16.005 -16.385  1.00  0.00     0.038 A 
HETATM    7  C   UNL     1      25.384 -16.452 -15.137  1.00  0.00     0.009 A 
ENDROOT
BRANCH   5   8
HETATM    8  O   UNL     1      27.200 -14.375 -17.613  1.00  0.00    -0.311 OA
BRANCH   8   9
HETATM    9  C   UNL     1      26.491 -13.349 -18.185  1.00  0.00     0.076 A 
HETATM   10  C   UNL     1      26.692 -12.094 -17.619  1.00  0.00     0.039 A 
HETATM   11  C   UNL     1      26.135 -10.952 -18.202  1.00  0.00     0.032 A 
HETATM   12  C   UNL     1      25.372 -11.045 -19.369  1.00  0.00     0.035 A 
HETATM   13  C   UNL     1      25.145 -12.316 -19.916  1.00  0.00     0.032 A 
HETATM   14  C   UNL     1      25.721 -13.461 -19.341  1.00  0.00     0.039 A 
BRANCH  12  15
HETATM   15  N   UNL     1      24.818  -9.923 -20.028  1.00  0.00    -0.323 N 
HETATM   16  C   UNL     1      25.487  -9.072 -20.888  1.00  0.00     0.257 C 
HETATM   17  O   UNL     1      26.636  -9.231 -21.294  1.00  0.00    -0.267 OA
HETATM   18  HN  UNL     1      23.828  -9.755 -19.884  1.00  0.00     0.169 HD
BRANCH  16  19
HETATM   19  C   UNL     1      24.753  -7.889 -21.429  1.00  0.00     0.054 A 
HETATM   20  C   UNL     1      25.235  -6.629 -21.021  1.00  0.00     0.019 A 
HETATM   21  C   UNL     1      24.550  -5.455 -21.338  1.00  0.00     0.001 A 
HETATM   22  C   UNL     1      23.370  -5.522 -22.068  1.00  0.00     0.002 A 
HETATM   23  C   UNL     1      22.894  -6.760 -22.504  1.00  0.00     0.025 A 
HETATM   24  C   UNL     1      23.582  -7.945 -22.195  1.00  0.00     0.049 A 
HETATM   25 CL   UNL     1      22.881  -9.416 -22.768  1.00  0.00    -0.083 Cl
ENDBRANCH  16  19
ENDBRANCH  12  15
ENDBRANCH   8   9
ENDBRANCH   5   8
TORSDOF 4
ENDMDL
MODEL 2
REMARK VINA RESULT:      -7.0     14.105     16.051
REMARK  4 active torsions:
REMARK  status: ('A' for Active; 'I' for Inactive)
REMARK    1  A    between atoms: C_5  and  O_8 
REMARK    2  A    between atoms: O_8  and  C_9 
REMARK    3  A    between atoms: C_12  and  N_15 
REMARK       I    between atoms: N_15  and  C_16 
REMARK    4  A    between atoms: C_16  and  C_18 
ROOT
HETATM    1  C   UNL     1      17.031  -7.920 -27.710  1.00  0.00     0.048 C 
HETATM    2  C   UNL     1      15.810  -7.263 -27.136  1.00  0.00    -0.062 A 
HETATM    3  C   UNL     1      15.364  -6.031 -27.625  1.00  0.00     0.009 A 
HETATM    4  C   UNL     1      14.292  -5.379 -27.014  1.00  0.00     0.038 A 
HETATM    5  C   UNL     1      13.649  -5.947 -25.910  1.00  0.00     0.076 A 
HETATM    6  C   UNL     1      14.085  -7.176 -25.417  1.00  0.00     0.038 A 
HETATM    7  C   UNL     1      15.154  -7.835 -26.037  1.00  0.00     0.009 A 
ENDROOT
BRANCH   5   8
HETATM    8  O   UNL     1      12.705  -5.148 -25.312  1.00  0.00    -0.311 OA
BRANCH   8   9
HETATM    9  C   UNL     1      12.962  -4.481 -24.141  1.00  0.00     0.076 A 
HETATM   10  C   UNL     1      11.849  -3.949 -23.498  1.00  0.00     0.039 A 
HETATM   11  C   UNL     1      11.967  -3.371 -22.230  1.00  0.00     0.032 A 
HETATM   12  C   UNL     1      13.202  -3.323 -21.580  1.00  0.00     0.035 A 
HETATM   13  C   UNL     1      14.326  -3.830 -22.246  1.00  0.00     0.032 A 
HETATM   14  C   UNL     1      14.204  -4.428 -23.512  1.00  0.00     0.039 A 
BRANCH  12  15
HETATM   15  N   UNL     1      13.378  -2.789 -20.282  1.00  0.00    -0.323 N 
HETATM   16  C   UNL     1      12.833  -3.293 -19.114  1.00  0.00     0.257 C 
HETATM   17  O   UNL     1      12.205  -4.345 -19.019  1.00  0.00    -0.267 OA
HETATM   18  HN  UNL     1      13.993  -1.986 -20.200  1.00  0.00     0.169 HD
BRANCH  16  19
HETATM   19  C   UNL     1      13.066  -2.545 -17.843  1.00  0.00     0.054 A 
HETATM   20  C   UNL     1      13.824  -3.221 -16.864  1.00  0.00     0.019 A 
HETATM   21  C   UNL     1      13.986  -2.691 -15.583  1.00  0.00     0.001 A 
HETATM   22  C   UNL     1      13.393  -1.477 -15.258  1.00  0.00     0.002 A 
HETATM   23  C   UNL     1      12.664  -0.782 -16.225  1.00  0.00     0.025 A 
HETATM   24  C   UNL     1      12.501  -1.306 -17.518  1.00  0.00     0.049 A 
HETATM   25 CL   UNL     1      11.556  -0.366 -18.617  1.00  0.00    -0.083 Cl
ENDBRANCH  16  19
ENDBRANCH  12  15
ENDBRANCH   8   9
ENDBRANCH   5   8
TORSDOF 4
ENDMDL
MODEL 3
REMARK VINA RESULT:      -6.9     13.179     15.885
REMARK  4 active torsions:
REMARK  status: ('A' for Active; 'I' for Inactive)
REMARK    1  A    between atoms: C_5  and  O_8 
REMARK    2  A    between atoms: O_8  and  C_9 
REMARK    3  A    between atoms: C_12  and  N_15 
REMARK       I    between atoms: N_15  and  C_16 
REMARK    4  A    between atoms: C_16  and  C_18 
ROOT
HETATM    1  C   UNL     1      16.390 -13.435 -33.879  1.00  0.00     0.048 C 
HETATM    2  C   UNL     1      16.240 -14.458 -32.791  1.00  0.00    -0.062 A 
HETATM    3  C   UNL     1      15.096 -15.258 -32.715  1.00  0.00     0.009 A 
HETATM    4  C   UNL     1      14.919 -16.130 -31.640  1.00  0.00     0.038 A 
HETATM    5  C   UNL     1      15.882 -16.218 -30.629  1.00  0.00     0.076 A 
HETATM    6  C   UNL     1      17.027 -15.427 -30.699  1.00  0.00     0.038 A 
HETATM    7  C   UNL     1      17.209 -14.559 -31.783  1.00  0.00     0.009 A 
ENDROOT
BRANCH   5   8
HETATM    8  O   UNL     1      15.531 -17.005 -29.559  1.00  0.00    -0.311 OA
BRANCH   8   9
HETATM    9  C   UNL     1      15.141 -16.459 -28.361  1.00  0.00     0.076 A 
HETATM   10  C   UNL     1      16.075 -16.541 -27.333  1.00  0.00     0.039 A 
HETATM   11  C   UNL     1      15.848 -15.899 -26.112  1.00  0.00     0.032 A 
HETATM   12  C   UNL     1      14.685 -15.156 -25.901  1.00  0.00     0.035 A 
HETATM   13  C   UNL     1      13.732 -15.104 -26.929  1.00  0.00     0.032 A 
HETATM   14  C   UNL     1      13.968 -15.733 -28.162  1.00  0.00     0.039 A 
BRANCH  12  15
HETATM   15  N   UNL     1      14.418 -14.450 -24.704  1.00  0.00    -0.323 N 
HETATM   16  C   UNL     1      13.799 -14.962 -23.579  1.00  0.00     0.257 C 
HETATM   17  O   UNL     1      13.487 -16.139 -23.412  1.00  0.00    -0.267 OA
HETATM   18  HN  UNL     1      14.750 -13.493 -24.658  1.00  0.00     0.169 HD
BRANCH  16  19
HETATM   19  C   UNL     1      13.531 -14.040 -22.435  1.00  0.00     0.054 A 
HETATM   20  C   UNL     1      14.637 -13.750 -21.609  1.00  0.00     0.019 A 
HETATM   21  C   UNL     1      14.487 -13.022 -20.428  1.00  0.00     0.001 A 
HETATM   22  C   UNL     1      13.227 -12.571 -20.052  1.00  0.00     0.002 A 
HETATM   23  C   UNL     1      12.126 -12.826 -20.874  1.00  0.00     0.025 A 
HETATM   24  C   UNL     1      12.272 -13.552 -22.067  1.00  0.00     0.049 A 
HETATM   25 CL   UNL     1      10.833 -13.824 -22.983  1.00  0.00    -0.083 Cl
ENDBRANCH  16  19
ENDBRANCH  12  15
ENDBRANCH   8   9
ENDBRANCH   5   8
TORSDOF 4
ENDMDL
MODEL 4
REMARK VINA RESULT:      -6.8     14.184     16.025
REMARK  4 active torsions:
REMARK  status: ('A' for Active; 'I' for Inactive)
REMARK    1  A    between atoms: C_5  and  O_8 
REMARK    2  A    between atoms: O_8  and  C_9 
REMARK    3  A    between atoms: C_12  and  N_15 
REMARK       I    between atoms: N_15  and  C_16 
REMARK    4  A    between atoms: C_16  and  C_18 
ROOT
HETATM    1  C   UNL     1      11.894  -2.339 -20.894  1.00  0.00     0.048 C 
HETATM    2  C   UNL     1      12.487  -3.324 -21.859  1.00  0.00    -0.062 A 
HETATM    3  C   UNL     1      11.677  -4.006 -22.771  1.00  0.00     0.009 A 
HETATM    4  C   UNL     1      12.221  -4.997 -23.590  1.00  0.00     0.038 A 
HETATM    5  C   UNL     1      13.580  -5.318 -23.512  1.00  0.00     0.076 A 
HETATM    6  C   UNL     1      14.395  -4.640 -22.608  1.00  0.00     0.038 A 
HETATM    7  C   UNL     1      13.852  -3.639 -21.793  1.00  0.00     0.009 A 
ENDROOT
BRANCH   5   8
HETATM    8  O   UNL     1      13.966  -6.400 -24.265  1.00  0.00    -0.311 OA
BRANCH   8   9
HETATM    9  C   UNL     1      14.510  -6.250 -25.516  1.00  0.00     0.076 A 
HETATM   10  C   UNL     1      15.270  -7.323 -25.971  1.00  0.00     0.039 A 
HETATM   11  C   UNL     1      15.756  -7.346 -27.282  1.00  0.00     0.032 A 
HETATM   12  C   UNL     1      15.484  -6.298 -28.163  1.00  0.00     0.035 A 
HETATM   13  C   UNL     1      14.746  -5.204 -27.689  1.00  0.00     0.032 A 
HETATM   14  C   UNL     1      14.240  -5.189 -26.379  1.00  0.00     0.039 A 
BRANCH  12  15
HETATM   15  N   UNL     1      15.912  -6.283 -29.511  1.00  0.00    -0.323 N 
HETATM   16  C   UNL     1      15.235  -6.828 -30.587  1.00  0.00     0.257 C 
HETATM   17  O   UNL     1      14.104  -7.308 -30.545  1.00  0.00    -0.267 OA
HETATM   18  HN  UNL     1      16.778  -5.792 -29.707  1.00  0.00     0.169 HD
BRANCH  16  19
HETATM   19  C   UNL     1      15.885  -6.785 -31.930  1.00  0.00     0.054 A 
HETATM   20  C   UNL     1      16.231  -5.502 -32.403  1.00  0.00     0.019 A 
HETATM   21  C   UNL     1      16.708  -5.314 -33.701  1.00  0.00     0.001 A 
HETATM   22  C   UNL     1      16.848  -6.406 -34.549  1.00  0.00     0.002 A 
HETATM   23  C   UNL     1      16.537  -7.686 -34.086  1.00  0.00     0.025 A 
HETATM   24  C   UNL     1      16.062  -7.883 -32.779  1.00  0.00     0.049 A 
HETATM   25 CL   UNL     1      15.687  -9.509 -32.333  1.00  0.00    -0.083 Cl
ENDBRANCH  16  19
ENDBRANCH  12  15
ENDBRANCH   8   9
ENDBRANCH   5   8
TORSDOF 4
ENDMDL
MODEL 5
REMARK VINA RESULT:      -6.8     14.115     16.436
REMARK  4 active torsions:
REMARK  status: ('A' for Active; 'I' for Inactive)
REMARK    1  A    between atoms: C_5  and  O_8 
REMARK    2  A    between atoms: O_8  and  C_9 
REMARK    3  A    between atoms: C_12  and  N_15 
REMARK       I    between atoms: N_15  and  C_16 
REMARK    4  A    between atoms: C_16  and  C_18 
ROOT
HETATM    1  C   UNL     1      16.296 -13.316 -33.332  1.00  0.00     0.048 C 
HETATM    2  C   UNL     1      16.396 -14.396 -32.294  1.00  0.00    -0.062 A 
HETATM    3  C   UNL     1      15.415 -15.387 -32.198  1.00  0.00     0.009 A 
HETATM    4  C   UNL     1      15.461 -16.323 -31.164  1.00  0.00     0.038 A 
HETATM    5  C   UNL     1      16.487 -16.285 -30.214  1.00  0.00     0.076 A 
HETATM    6  C   UNL     1      17.471 -15.302 -30.304  1.00  0.00     0.038 A 
HETATM    7  C   UNL     1      17.431 -14.369 -31.348  1.00  0.00     0.009 A 
ENDROOT
BRANCH   5   8
HETATM    8  O   UNL     1      16.347 -17.166 -29.170  1.00  0.00    -0.311 OA
BRANCH   8   9
HETATM    9  C   UNL     1      15.610 -16.852 -28.056  1.00  0.00     0.076 A 
HETATM   10  C   UNL     1      14.261 -17.188 -28.116  1.00  0.00     0.039 A 
HETATM   11  C   UNL     1      13.440 -17.046 -26.993  1.00  0.00     0.032 A 
HETATM   12  C   UNL     1      13.959 -16.573 -25.785  1.00  0.00     0.035 A 
HETATM   13  C   UNL     1      15.311 -16.205 -25.740  1.00  0.00     0.032 A 
HETATM   14  C   UNL     1      16.140 -16.366 -26.863  1.00  0.00     0.039 A 
BRANCH  12  15
HETATM   15  N   UNL     1      13.190 -16.447 -24.605  1.00  0.00    -0.323 N 
HETATM   16  C   UNL     1      12.613 -15.284 -24.129  1.00  0.00     0.257 C 
HETATM   17  O   UNL     1      12.591 -14.208 -24.723  1.00  0.00    -0.267 OA
HETATM   18  HN  UNL     1      13.016 -17.300 -24.083  1.00  0.00     0.169 HD
BRANCH  16  19
HETATM   19  C   UNL     1      11.901 -15.330 -22.817  1.00  0.00     0.054 A 
HETATM   20  C   UNL     1      10.501 -15.172 -22.874  1.00  0.00     0.019 A 
HETATM   21  C   UNL     1       9.739 -15.049 -21.711  1.00  0.00     0.001 A 
HETATM   22  C   UNL     1      10.365 -15.082 -20.470  1.00  0.00     0.002 A 
HETATM   23  C   UNL     1      11.748 -15.267 -20.397  1.00  0.00     0.025 A 
HETATM   24  C   UNL     1      12.519 -15.397 -21.563  1.00  0.00     0.049 A 
HETATM   25 CL   UNL     1      14.221 -15.594 -21.343  1.00  0.00    -0.083 Cl
ENDBRANCH  16  19
ENDBRANCH  12  15
ENDBRANCH   8   9
ENDBRANCH   5   8
TORSDOF 4
ENDMDL
MODEL 6
REMARK VINA RESULT:      -6.8     13.354     14.995
REMARK  4 active torsions:
REMARK  status: ('A' for Active; 'I' for Inactive)
REMARK    1  A    between atoms: C_5  and  O_8 
REMARK    2  A    between atoms: O_8  and  C_9 
REMARK    3  A    between atoms: C_12  and  N_15 
REMARK       I    between atoms: N_15  and  C_16 
REMARK    4  A    between atoms: C_16  and  C_18 
ROOT
HETATM    1  C   UNL     1      13.557  -5.992 -15.727  1.00  0.00     0.048 C 
HETATM    2  C   UNL     1      13.067  -5.078 -16.813  1.00  0.00    -0.062 A 
HETATM    3  C   UNL     1      12.120  -5.518 -17.743  1.00  0.00     0.009 A 
HETATM    4  C   UNL     1      11.751  -4.698 -18.811  1.00  0.00     0.038 A 
HETATM    5  C   UNL     1      12.319  -3.429 -18.963  1.00  0.00     0.076 A 
HETATM    6  C   UNL     1      13.261  -2.982 -18.039  1.00  0.00     0.038 A 
HETATM    7  C   UNL     1      13.624  -3.800 -16.962  1.00  0.00     0.009 A 
ENDROOT
BRANCH   5   8
HETATM    8  O   UNL     1      11.982  -2.777 -20.124  1.00  0.00    -0.311 OA
BRANCH   8   9
HETATM    9  C   UNL     1      12.444  -3.197 -21.347  1.00  0.00     0.076 A 
HETATM   10  C   UNL     1      13.805  -3.476 -21.409  1.00  0.00     0.039 A 
HETATM   11  C   UNL     1      14.364  -4.043 -22.558  1.00  0.00     0.032 A 
HETATM   12  C   UNL     1      13.567  -4.350 -23.663  1.00  0.00     0.035 A 
HETATM   13  C   UNL     1      12.202  -4.037 -23.607  1.00  0.00     0.032 A 
HETATM   14  C   UNL     1      11.637  -3.484 -22.446  1.00  0.00     0.039 A 
BRANCH  12  15
HETATM   15  N   UNL     1      14.066  -4.962 -24.837  1.00  0.00    -0.323 N 
HETATM   16  C   UNL     1      14.066  -6.318 -25.111  1.00  0.00     0.257 C 
HETATM   17  O   UNL     1      13.531  -7.182 -24.420  1.00  0.00    -0.267 OA
HETATM   18  HN  UNL     1      14.419  -4.342 -25.558  1.00  0.00     0.169 HD
BRANCH  16  19
HETATM   19  C   UNL     1      14.711  -6.786 -26.373  1.00  0.00     0.054 A 
HETATM   20  C   UNL     1      15.888  -7.547 -26.215  1.00  0.00     0.019 A 
HETATM   21  C   UNL     1      16.663  -7.918 -27.316  1.00  0.00     0.001 A 
HETATM   22  C   UNL     1      16.274  -7.534 -28.593  1.00  0.00     0.002 A 
HETATM   23  C   UNL     1      15.095  -6.805 -28.769  1.00  0.00     0.025 A 
HETATM   24  C   UNL     1      14.308  -6.434 -27.667  1.00  0.00     0.049 A 
HETATM   25 CL   UNL     1      12.888  -5.512 -28.010  1.00  0.00    -0.083 Cl
ENDBRANCH  16  19
ENDBRANCH  12  15
ENDBRANCH   8   9
ENDBRANCH   5   8
TORSDOF 4
ENDMDL
MODEL 7
REMARK VINA RESULT:      -6.8      8.874     13.828
REMARK  4 active torsions:
REMARK  status: ('A' for Active; 'I' for Inactive)
REMARK    1  A    between atoms: C_5  and  O_8 
REMARK    2  A    between atoms: O_8  and  C_9 
REMARK    3  A    between atoms: C_12  and  N_15 
REMARK       I    between atoms: N_15  and  C_16 
REMARK    4  A    between atoms: C_16  and  C_18 
ROOT
HETATM    1  C   UNL     1      15.867  -5.405 -28.957  1.00  0.00     0.048 C 
HETATM    2  C   UNL     1      15.223  -5.921 -27.703  1.00  0.00    -0.062 A 
HETATM    3  C   UNL     1      14.337  -5.121 -26.974  1.00  0.00     0.009 A 
HETATM    4  C   UNL     1      13.827  -5.569 -25.755  1.00  0.00     0.038 A 
HETATM    5  C   UNL     1      14.191  -6.821 -25.248  1.00  0.00     0.076 A 
HETATM    6  C   UNL     1      15.070  -7.626 -25.969  1.00  0.00     0.038 A 
HETATM    7  C   UNL     1      15.574  -7.181 -27.198  1.00  0.00     0.009 A 
ENDROOT
BRANCH   5   8
HETATM    8  O   UNL     1      13.736  -7.089 -23.980  1.00  0.00    -0.311 OA
BRANCH   8   9
HETATM    9  C   UNL     1      14.553  -7.638 -23.023  1.00  0.00     0.076 A 
HETATM   10  C   UNL     1      15.363  -6.737 -22.339  1.00  0.00     0.039 A 
HETATM   11  C   UNL     1      16.133  -7.155 -21.249  1.00  0.00     0.032 A 
HETATM   12  C   UNL     1      16.098  -8.484 -20.819  1.00  0.00     0.035 A 
HETATM   13  C   UNL     1      15.305  -9.394 -21.532  1.00  0.00     0.032 A 
HETATM   14  C   UNL     1      14.517  -8.970 -22.615  1.00  0.00     0.039 A 
BRANCH  12  15
HETATM   15  N   UNL     1      16.820  -8.958 -19.700  1.00  0.00    -0.323 N 
HETATM   16  C   UNL     1      16.358  -9.015 -18.397  1.00  0.00     0.257 C 
HETATM   17  O   UNL     1      15.210  -8.765 -18.039  1.00  0.00    -0.267 OA
HETATM   18  HN  UNL     1      17.748  -9.326 -19.881  1.00  0.00     0.169 HD
BRANCH  16  19
HETATM   19  C   UNL     1      17.297  -9.475 -17.331  1.00  0.00     0.054 A 
HETATM   20  C   UNL     1      17.882 -10.742 -17.533  1.00  0.00     0.019 A 
HETATM   21  C   UNL     1      18.660 -11.346 -16.544  1.00  0.00     0.001 A 
HETATM   22  C   UNL     1      18.865 -10.693 -15.334  1.00  0.00     0.002 A 
HETATM   23  C   UNL     1      18.316  -9.425 -15.130  1.00  0.00     0.025 A 
HETATM   24  C   UNL     1      17.538  -8.809 -16.124  1.00  0.00     0.049 A 
HETATM   25 CL   UNL     1      16.893  -7.253 -15.742  1.00  0.00    -0.083 Cl
ENDBRANCH  16  19
ENDBRANCH  12  15
ENDBRANCH   8   9
ENDBRANCH   5   8
TORSDOF 4
ENDMDL
MODEL 8
REMARK VINA RESULT:      -6.8     14.114     16.028
REMARK  4 active torsions:
REMARK  status: ('A' for Active; 'I' for Inactive)
REMARK    1  A    between atoms: C_5  and  O_8 
REMARK    2  A    between atoms: O_8  and  C_9 
REMARK    3  A    between atoms: C_12  and  N_15 
REMARK       I    between atoms: N_15  and  C_16 
REMARK    4  A    between atoms: C_16  and  C_18 
ROOT
HETATM    1  C   UNL     1      17.067  -7.560 -27.961  1.00  0.00     0.048 C 
HETATM    2  C   UNL     1      15.831  -6.973 -27.343  1.00  0.00    -0.062 A 
HETATM    3  C   UNL     1      15.342  -5.732 -27.763  1.00  0.00     0.009 A 
HETATM    4  C   UNL     1      14.256  -5.148 -27.110  1.00  0.00     0.038 A 
HETATM    5  C   UNL     1      13.641  -5.794 -26.033  1.00  0.00     0.076 A 
HETATM    6  C   UNL     1      14.120  -7.033 -25.610  1.00  0.00     0.038 A 
HETATM    7  C   UNL     1      15.203  -7.624 -26.272  1.00  0.00     0.009 A 
ENDROOT
BRANCH   5   8
HETATM    8  O   UNL     1      12.678  -5.059 -25.386  1.00  0.00    -0.311 OA
BRANCH   8   9
HETATM    9  C   UNL     1      12.927  -4.440 -24.187  1.00  0.00     0.076 A 
HETATM   10  C   UNL     1      11.817  -3.885 -23.557  1.00  0.00     0.039 A 
HETATM   11  C   UNL     1      11.921  -3.353 -22.268  1.00  0.00     0.032 A 
HETATM   12  C   UNL     1      13.138  -3.376 -21.583  1.00  0.00     0.035 A 
HETATM   13  C   UNL     1      14.260  -3.907 -22.234  1.00  0.00     0.032 A 
HETATM   14  C   UNL     1      14.151  -4.458 -23.522  1.00  0.00     0.039 A 
BRANCH  12  15
HETATM   15  N   UNL     1      13.296  -2.892 -20.263  1.00  0.00    -0.323 N 
HETATM   16  C   UNL     1      12.701  -3.412 -19.128  1.00  0.00     0.257 C 
HETATM   17  O   UNL     1      12.032  -4.443 -19.086  1.00  0.00    -0.267 OA
HETATM   18  HN  UNL     1      13.938  -2.117 -20.138  1.00  0.00     0.169 HD
BRANCH  16  19
HETATM   19  C   UNL     1      12.925  -2.716 -17.827  1.00  0.00     0.054 A 
HETATM   20  C   UNL     1      12.300  -1.459 -17.687  1.00  0.00     0.019 A 
HETATM   21  C   UNL     1      12.550  -0.646 -16.581  1.00  0.00     0.001 A 
HETATM   22  C   UNL     1      13.430  -1.075 -15.595  1.00  0.00     0.002 A 
HETATM   23  C   UNL     1      14.035  -2.329 -15.704  1.00  0.00     0.025 A 
HETATM   24  C   UNL     1      13.783  -3.156 -16.812  1.00  0.00     0.049 A 
HETATM   25 CL   UNL     1      14.610  -4.672 -16.845  1.00  0.00    -0.083 Cl
ENDBRANCH  16  19
ENDBRANCH  12  15
ENDBRANCH   8   9
ENDBRANCH   5   8
TORSDOF 4
ENDMDL
MODEL 9
REMARK VINA RESULT:      -6.8     13.594     16.354
REMARK  4 active torsions:
REMARK  status: ('A' for Active; 'I' for Inactive)
REMARK    1  A    between atoms: C_5  and  O_8 
REMARK    2  A    between atoms: O_8  and  C_9 
REMARK    3  A    between atoms: C_12  and  N_15 
REMARK       I    between atoms: N_15  and  C_16 
REMARK    4  A    between atoms: C_16  and  C_18 
ROOT
HETATM    1  C   UNL     1      13.756 -14.225 -34.686  1.00  0.00     0.048 C 
HETATM    2  C   UNL     1      14.619 -14.722 -33.563  1.00  0.00    -0.062 A 
HETATM    3  C   UNL     1      14.139 -15.679 -32.664  1.00  0.00     0.009 A 
HETATM    4  C   UNL     1      14.909 -16.056 -31.562  1.00  0.00     0.038 A 
HETATM    5  C   UNL     1      16.167 -15.486 -31.344  1.00  0.00     0.076 A 
HETATM    6  C   UNL     1      16.654 -14.533 -32.237  1.00  0.00     0.038 A 
HETATM    7  C   UNL     1      15.887 -14.163 -33.348  1.00  0.00     0.009 A 
ENDROOT
BRANCH   5   8
HETATM    8  O   UNL     1      16.764 -15.832 -30.157  1.00  0.00    -0.311 OA
BRANCH   8   9
HETATM    9  C   UNL     1      16.171 -15.567 -28.947  1.00  0.00     0.076 A 
HETATM   10  C   UNL     1      16.439 -16.484 -27.936  1.00  0.00     0.039 A 
HETATM   11  C   UNL     1      16.007 -16.247 -26.627  1.00  0.00     0.032 A 
HETATM   12  C   UNL     1      15.307 -15.082 -26.306  1.00  0.00     0.035 A 
HETATM   13  C   UNL     1      15.012 -14.177 -27.336  1.00  0.00     0.032 A 
HETATM   14  C   UNL     1      15.462 -14.406 -28.647  1.00  0.00     0.039 A 
BRANCH  12  15
HETATM   15  N   UNL     1      14.881 -14.766 -24.995  1.00  0.00    -0.323 N 
HETATM   16  C   UNL     1      13.738 -15.238 -24.375  1.00  0.00     0.257 C 
HETATM   17  O   UNL     1      12.981 -16.090 -24.833  1.00  0.00    -0.267 OA
HETATM   18  HN  UNL     1      15.494 -14.169 -24.450  1.00  0.00     0.169 HD
BRANCH  16  19
HETATM   19  C   UNL     1      13.411 -14.729 -23.009  1.00  0.00     0.054 A 
HETATM   20  C   UNL     1      13.470 -15.680 -21.970  1.00  0.00     0.019 A 
HETATM   21  C   UNL     1      13.047 -15.367 -20.677  1.00  0.00     0.001 A 
HETATM   22  C   UNL     1      12.555 -14.096 -20.402  1.00  0.00     0.002 A 
HETATM   23  C   UNL     1      12.517 -13.134 -21.414  1.00  0.00     0.025 A 
HETATM   24  C   UNL     1      12.948 -13.441 -22.716  1.00  0.00     0.049 A 
HETATM   25 CL   UNL     1      12.827 -12.176 -23.886  1.00  0.00    -0.083 Cl
ENDBRANCH  16  19
ENDBRANCH  12  15
ENDBRANCH   8   9
ENDBRANCH   5   8
TORSDOF 4
ENDMDL
