MODEL 1
REMARK VINA RESULT:      -6.6      0.000      0.000
REMARK  1 active torsions:
REMARK  status: ('A' for Active; 'I' for Inactive)
REMARK    1  A    between atoms: C_5  and  N_9 
ROOT
HETATM    1  C   UNL     1      14.823  -7.387 -24.593  1.00  0.00     0.048 C 
HETATM    2  C   UNL     1      15.200  -7.196 -26.034  1.00  0.00    -0.061 A 
HETATM    3  C   UNL     1      14.406  -6.455 -26.902  1.00  0.00     0.009 A 
HETATM    4  C   UNL     1      14.734  -6.362 -28.260  1.00  0.00     0.031 A 
HETATM    5  C   UNL     1      15.872  -6.996 -28.788  1.00  0.00     0.051 A 
HETATM    6  C   UNL     1      16.687  -7.743 -27.910  1.00  0.00    -0.034 A 
HETATM    7  C   UNL     1      17.862  -8.567 -28.368  1.00  0.00     0.050 C 
HETATM    8  C   UNL     1      16.349  -7.813 -26.539  1.00  0.00     0.015 A 
ENDROOT
BRANCH   5   9
HETATM    9  N   UNL     1      16.084  -6.994 -30.196  1.00  0.00    -0.251 N 
HETATM   10  C   UNL     1      16.667  -5.964 -30.907  1.00  0.00     0.236 C 
HETATM   11  O   UNL     1      16.863  -4.815 -30.542  1.00  0.00    -0.272 OA
HETATM   12  C   UNL     1      16.961  -6.461 -32.312  1.00  0.00     0.096 C 
HETATM   13  C   UNL     1      16.344  -5.666 -33.485  1.00  0.00    -0.000 C 
HETATM   14  C   UNL     1      16.217  -7.793 -32.379  1.00  0.00     0.096 C 
HETATM   15  C   UNL     1      16.768  -6.301 -34.833  1.00  0.00     0.006 C 
HETATM   16  C   UNL     1      14.881  -6.103 -33.445  1.00  0.00     0.011 C 
HETATM   17  C   UNL     1      16.051  -7.664 -34.826  1.00  0.00     0.006 C 
HETATM   18  C   UNL     1      15.223  -7.596 -33.531  1.00  0.00    -0.000 C 
HETATM   19  C   UNL     1      15.588  -7.966 -31.028  1.00  0.00     0.236 C 
HETATM   20  O   UNL     1      14.808  -8.874 -30.777  1.00  0.00    -0.272 OA
ENDBRANCH   5   9
TORSDOF 1
ENDMDL
MODEL 2
REMARK VINA RESULT:      -6.2      7.244     11.647
REMARK  1 active torsions:
REMARK  status: ('A' for Active; 'I' for Inactive)
REMARK    1  A    between atoms: C_5  and  N_9 
ROOT
HETATM    1  C   UNL     1      13.327  -4.611 -25.724  1.00  0.00     0.048 C 
HETATM    2  C   UNL     1      13.840  -5.025 -24.374  1.00  0.00    -0.061 A 
HETATM    3  C   UNL     1      14.176  -6.346 -24.097  1.00  0.00     0.009 A 
HETATM    4  C   UNL     1      14.571  -6.722 -22.807  1.00  0.00     0.031 A 
HETATM    5  C   UNL     1      14.655  -5.787 -21.760  1.00  0.00     0.051 A 
HETATM    6  C   UNL     1      14.324  -4.443 -22.038  1.00  0.00    -0.034 A 
HETATM    7  C   UNL     1      14.255  -3.371 -20.982  1.00  0.00     0.050 C 
HETATM    8  C   UNL     1      13.942  -4.079 -23.349  1.00  0.00     0.015 A 
ENDROOT
BRANCH   5   9
HETATM    9  N   UNL     1      14.920  -6.241 -20.437  1.00  0.00    -0.251 N 
HETATM   10  C   UNL     1      16.178  -6.430 -19.902  1.00  0.00     0.236 C 
HETATM   11  O   UNL     1      17.244  -6.499 -20.494  1.00  0.00    -0.272 OA
HETATM   12  C   UNL     1      16.033  -6.644 -18.405  1.00  0.00     0.096 C 
HETATM   13  C   UNL     1      16.616  -7.950 -17.819  1.00  0.00    -0.000 C 
HETATM   14  C   UNL     1      14.530  -6.832 -18.219  1.00  0.00     0.096 C 
HETATM   15  C   UNL     1      16.397  -7.983 -16.286  1.00  0.00     0.006 C 
HETATM   16  C   UNL     1      15.584  -8.991 -18.247  1.00  0.00     0.011 C 
HETATM   17  C   UNL     1      14.868  -8.105 -16.146  1.00  0.00     0.006 C 
HETATM   18  C   UNL     1      14.412  -8.235 -17.610  1.00  0.00    -0.000 C 
HETATM   19  C   UNL     1      13.937  -6.689 -19.590  1.00  0.00     0.236 C 
HETATM   20  O   UNL     1      12.758  -6.910 -19.824  1.00  0.00    -0.272 OA
ENDBRANCH   5   9
TORSDOF 1
ENDMDL
MODEL 3
REMARK VINA RESULT:      -6.1      5.324      9.681
REMARK  1 active torsions:
REMARK  status: ('A' for Active; 'I' for Inactive)
REMARK    1  A    between atoms: C_5  and  N_9 
ROOT
HETATM    1  C   UNL     1      16.385  -7.840 -27.102  1.00  0.00     0.048 C 
HETATM    2  C   UNL     1      15.408  -7.178 -26.173  1.00  0.00    -0.061 A 
HETATM    3  C   UNL     1      14.608  -6.120 -26.591  1.00  0.00     0.009 A 
HETATM    4  C   UNL     1      13.766  -5.465 -25.684  1.00  0.00     0.031 A 
HETATM    5  C   UNL     1      13.689  -5.857 -24.336  1.00  0.00     0.051 A 
HETATM    6  C   UNL     1      14.491  -6.936 -23.908  1.00  0.00    -0.034 A 
HETATM    7  C   UNL     1      14.593  -7.375 -22.470  1.00  0.00     0.050 C 
HETATM    8  C   UNL     1      15.324  -7.595 -24.841  1.00  0.00     0.015 A 
ENDROOT
BRANCH   5   9
HETATM    9  N   UNL     1      12.930  -5.071 -23.422  1.00  0.00    -0.251 N 
HETATM   10  C   UNL     1      13.411  -3.980 -22.727  1.00  0.00     0.236 C 
HETATM   11  O   UNL     1      14.574  -3.648 -22.560  1.00  0.00    -0.272 OA
HETATM   12  C   UNL     1      12.233  -3.264 -22.089  1.00  0.00     0.096 C 
HETATM   13  C   UNL     1      12.271  -3.071 -20.556  1.00  0.00    -0.000 C 
HETATM   14  C   UNL     1      11.078  -4.244 -22.278  1.00  0.00     0.096 C 
HETATM   15  C   UNL     1      11.007  -2.305 -20.090  1.00  0.00     0.006 C 
HETATM   16  C   UNL     1      11.928  -4.467 -20.041  1.00  0.00     0.011 C 
HETATM   17  C   UNL     1       9.866  -3.303 -20.361  1.00  0.00     0.006 C 
HETATM   18  C   UNL     1      10.625  -4.551 -20.845  1.00  0.00    -0.000 C 
HETATM   19  C   UNL     1      11.664  -5.412 -23.017  1.00  0.00     0.236 C 
HETATM   20  O   UNL     1      11.038  -6.442 -23.221  1.00  0.00    -0.272 OA
ENDBRANCH   5   9
TORSDOF 1
ENDMDL
MODEL 4
REMARK VINA RESULT:      -6.1     11.692     13.393
REMARK  1 active torsions:
REMARK  status: ('A' for Active; 'I' for Inactive)
REMARK    1  A    between atoms: C_5  and  N_9 
ROOT
HETATM    1  C   UNL     1      15.655   4.147 -19.808  1.00  0.00     0.048 C 
HETATM    2  C   UNL     1      16.760   3.131 -19.847  1.00  0.00    -0.061 A 
HETATM    3  C   UNL     1      18.029   3.452 -20.317  1.00  0.00     0.009 A 
HETATM    4  C   UNL     1      19.018   2.467 -20.423  1.00  0.00     0.031 A 
HETATM    5  C   UNL     1      18.772   1.134 -20.049  1.00  0.00     0.051 A 
HETATM    6  C   UNL     1      17.489   0.803 -19.563  1.00  0.00    -0.034 A 
HETATM    7  C   UNL     1      17.060  -0.606 -19.245  1.00  0.00     0.050 C 
HETATM    8  C   UNL     1      16.508   1.814 -19.449  1.00  0.00     0.015 A 
ENDROOT
BRANCH   5   9
HETATM    9  N   UNL     1      19.760   0.142 -20.310  1.00  0.00    -0.251 N 
HETATM   10  C   UNL     1      20.860  -0.108 -19.515  1.00  0.00     0.236 C 
HETATM   11  O   UNL     1      21.326   0.596 -18.633  1.00  0.00    -0.272 OA
HETATM   12  C   UNL     1      21.499  -1.406 -19.979  1.00  0.00     0.096 C 
HETATM   13  C   UNL     1      22.987  -1.352 -20.394  1.00  0.00    -0.000 C 
HETATM   14  C   UNL     1      20.790  -1.698 -21.299  1.00  0.00     0.096 C 
HETATM   15  C   UNL     1      23.469  -2.763 -20.812  1.00  0.00     0.006 C 
HETATM   16  C   UNL     1      22.920  -0.687 -21.768  1.00  0.00     0.011 C 
HETATM   17  C   UNL     1      22.681  -3.041 -22.106  1.00  0.00     0.006 C 
HETATM   18  C   UNL     1      21.930  -1.716 -22.326  1.00  0.00    -0.000 C 
HETATM   19  C   UNL     1      19.803  -0.582 -21.476  1.00  0.00     0.236 C 
HETATM   20  O   UNL     1      19.151  -0.435 -22.500  1.00  0.00    -0.272 OA
ENDBRANCH   5   9
TORSDOF 1
ENDMDL
MODEL 5
REMARK VINA RESULT:      -6.1     11.449     14.222
REMARK  1 active torsions:
REMARK  status: ('A' for Active; 'I' for Inactive)
REMARK    1  A    between atoms: C_5  and  N_9 
ROOT
HETATM    1  C   UNL     1      23.427  -3.709 -21.673  1.00  0.00     0.048 C 
HETATM    2  C   UNL     1      22.589  -2.535 -21.256  1.00  0.00    -0.061 A 
HETATM    3  C   UNL     1      22.842  -1.842 -20.078  1.00  0.00     0.009 A 
HETATM    4  C   UNL     1      21.994  -0.805 -19.667  1.00  0.00     0.031 A 
HETATM    5  C   UNL     1      20.877  -0.423 -20.430  1.00  0.00     0.051 A 
HETATM    6  C   UNL     1      20.619  -1.116 -21.632  1.00  0.00    -0.034 A 
HETATM    7  C   UNL     1      19.393  -0.888 -22.475  1.00  0.00     0.050 C 
HETATM    8  C   UNL     1      21.494  -2.150 -22.037  1.00  0.00     0.015 A 
ENDROOT
BRANCH   5   9
HETATM    9  N   UNL     1      19.966   0.536 -19.902  1.00  0.00    -0.251 N 
HETATM   10  C   UNL     1      18.863   0.237 -19.128  1.00  0.00     0.236 C 
HETATM   11  O   UNL     1      18.327  -0.848 -18.969  1.00  0.00    -0.272 OA
HETATM   12  C   UNL     1      18.326   1.533 -18.542  1.00  0.00     0.096 C 
HETATM   13  C   UNL     1      16.850   1.883 -18.838  1.00  0.00    -0.000 C 
HETATM   14  C   UNL     1      19.089   2.610 -19.308  1.00  0.00     0.096 C 
HETATM   15  C   UNL     1      16.476   3.217 -18.145  1.00  0.00     0.006 C 
HETATM   16  C   UNL     1      16.910   2.356 -20.289  1.00  0.00     0.011 C 
HETATM   17  C   UNL     1      17.316   4.261 -18.904  1.00  0.00     0.006 C 
HETATM   18  C   UNL     1      17.983   3.414 -20.003  1.00  0.00    -0.000 C 
HETATM   19  C   UNL     1      20.004   1.867 -20.236  1.00  0.00     0.236 C 
HETATM   20  O   UNL     1      20.672   2.429 -21.092  1.00  0.00    -0.272 OA
ENDBRANCH   5   9
TORSDOF 1
ENDMDL
MODEL 6
REMARK VINA RESULT:      -6.0      9.334     14.544
REMARK  1 active torsions:
REMARK  status: ('A' for Active; 'I' for Inactive)
REMARK    1  A    between atoms: C_5  and  N_9 
ROOT
HETATM    1  C   UNL     1      13.777  -4.111 -23.421  1.00  0.00     0.048 C 
HETATM    2  C   UNL     1      13.884  -4.018 -21.926  1.00  0.00    -0.061 A 
HETATM    3  C   UNL     1      15.037  -3.549 -21.306  1.00  0.00     0.009 A 
HETATM    4  C   UNL     1      15.144  -3.551 -19.910  1.00  0.00     0.031 A 
HETATM    5  C   UNL     1      14.097  -4.010 -19.092  1.00  0.00     0.051 A 
HETATM    6  C   UNL     1      12.920  -4.478 -19.715  1.00  0.00    -0.034 A 
HETATM    7  C   UNL     1      11.777  -5.107 -18.962  1.00  0.00     0.050 C 
HETATM    8  C   UNL     1      12.824  -4.455 -21.125  1.00  0.00     0.015 A 
ENDROOT
BRANCH   5   9
HETATM    9  N   UNL     1      14.307  -4.128 -17.689  1.00  0.00    -0.251 N 
HETATM   10  C   UNL     1      14.816  -5.243 -17.055  1.00  0.00     0.236 C 
HETATM   11  O   UNL     1      14.934  -6.374 -17.502  1.00  0.00    -0.272 OA
HETATM   12  C   UNL     1      15.143  -4.869 -15.619  1.00  0.00     0.096 C 
HETATM   13  C   UNL     1      14.472  -5.702 -14.504  1.00  0.00    -0.000 C 
HETATM   14  C   UNL     1      14.493  -3.498 -15.454  1.00  0.00     0.096 C 
HETATM   15  C   UNL     1      14.938  -5.196 -13.116  1.00  0.00     0.006 C 
HETATM   16  C   UNL     1      13.043  -5.163 -14.506  1.00  0.00     0.011 C 
HETATM   17  C   UNL     1      14.317  -3.790 -13.022  1.00  0.00     0.006 C 
HETATM   18  C   UNL     1      13.487  -3.708 -14.316  1.00  0.00    -0.000 C 
HETATM   19  C   UNL     1      13.879  -3.186 -16.787  1.00  0.00     0.236 C 
HETATM   20  O   UNL     1      13.164  -2.211 -16.970  1.00  0.00    -0.272 OA
ENDBRANCH   5   9
TORSDOF 1
ENDMDL
MODEL 7
REMARK VINA RESULT:      -6.0     11.595     13.994
REMARK  1 active torsions:
REMARK  status: ('A' for Active; 'I' for Inactive)
REMARK    1  A    between atoms: C_5  and  N_9 
ROOT
HETATM    1  C   UNL     1      23.206  -3.352 -21.805  1.00  0.00     0.048 C 
HETATM    2  C   UNL     1      22.089  -2.404 -21.472  1.00  0.00    -0.061 A 
HETATM    3  C   UNL     1      21.339  -1.786 -22.465  1.00  0.00     0.009 A 
HETATM    4  C   UNL     1      20.359  -0.842 -22.132  1.00  0.00     0.031 A 
HETATM    5  C   UNL     1      20.093  -0.498 -20.795  1.00  0.00     0.051 A 
HETATM    6  C   UNL     1      20.846  -1.129 -19.781  1.00  0.00    -0.034 A 
HETATM    7  C   UNL     1      20.744  -0.764 -18.323  1.00  0.00     0.050 C 
HETATM    8  C   UNL     1      21.820  -2.091 -20.136  1.00  0.00     0.015 A 
ENDROOT
BRANCH   5   9
HETATM    9  N   UNL     1      19.193   0.569 -20.514  1.00  0.00    -0.251 N 
HETATM   10  C   UNL     1      19.535   1.905 -20.482  1.00  0.00     0.236 C 
HETATM   11  O   UNL     1      20.653   2.395 -20.428  1.00  0.00    -0.272 OA
HETATM   12  C   UNL     1      18.256   2.724 -20.428  1.00  0.00     0.096 C 
HETATM   13  C   UNL     1      18.096   3.705 -19.244  1.00  0.00    -0.000 C 
HETATM   14  C   UNL     1      17.179   1.679 -20.149  1.00  0.00     0.096 C 
HETATM   15  C   UNL     1      16.751   4.464 -19.367  1.00  0.00     0.006 C 
HETATM   16  C   UNL     1      17.756   2.768 -18.086  1.00  0.00     0.011 C 
HETATM   17  C   UNL     1      15.698   3.362 -19.146  1.00  0.00     0.006 C 
HETATM   18  C   UNL     1      16.567   2.135 -18.818  1.00  0.00    -0.000 C 
HETATM   19  C   UNL     1      17.903   0.366 -20.091  1.00  0.00     0.236 C 
HETATM   20  O   UNL     1      17.354  -0.674 -19.757  1.00  0.00    -0.272 OA
ENDBRANCH   5   9
TORSDOF 1
ENDMDL
MODEL 8
REMARK VINA RESULT:      -6.0      9.197     14.124
REMARK  1 active torsions:
REMARK  status: ('A' for Active; 'I' for Inactive)
REMARK    1  A    between atoms: C_5  and  N_9 
ROOT
HETATM    1  C   UNL     1      12.867  -4.407 -24.065  1.00  0.00     0.048 C 
HETATM    2  C   UNL     1      13.245  -3.900 -22.703  1.00  0.00    -0.061 A 
HETATM    3  C   UNL     1      14.495  -4.157 -22.151  1.00  0.00     0.009 A 
HETATM    4  C   UNL     1      14.794  -3.747 -20.846  1.00  0.00     0.031 A 
HETATM    5  C   UNL     1      13.856  -3.055 -20.059  1.00  0.00     0.051 A 
HETATM    6  C   UNL     1      12.589  -2.783 -20.617  1.00  0.00    -0.034 A 
HETATM    7  C   UNL     1      11.458  -2.160 -19.841  1.00  0.00     0.050 C 
HETATM    8  C   UNL     1      12.310  -3.192 -21.941  1.00  0.00     0.015 A 
ENDROOT
BRANCH   5   9
HETATM    9  N   UNL     1      14.154  -2.787 -18.693  1.00  0.00    -0.251 N 
HETATM   10  C   UNL     1      13.749  -3.565 -17.627  1.00  0.00     0.236 C 
HETATM   11  O   UNL     1      12.890  -4.433 -17.613  1.00  0.00    -0.272 OA
HETATM   12  C   UNL     1      14.497  -3.103 -16.388  1.00  0.00     0.096 C 
HETATM   13  C   UNL     1      13.647  -2.662 -15.175  1.00  0.00    -0.000 C 
HETATM   14  C   UNL     1      15.150  -1.798 -16.835  1.00  0.00     0.096 C 
HETATM   15  C   UNL     1      14.574  -2.250 -14.004  1.00  0.00     0.006 C 
HETATM   16  C   UNL     1      13.150  -1.284 -15.606  1.00  0.00     0.011 C 
HETATM   17  C   UNL     1      15.259  -0.972 -14.525  1.00  0.00     0.006 C 
HETATM   18  C   UNL     1      14.562  -0.752 -15.879  1.00  0.00    -0.000 C 
HETATM   19  C   UNL     1      14.757  -1.628 -18.273  1.00  0.00     0.236 C 
HETATM   20  O   UNL     1      15.007  -0.614 -18.908  1.00  0.00    -0.272 OA
ENDBRANCH   5   9
TORSDOF 1
ENDMDL
MODEL 9
REMARK VINA RESULT:      -6.0      9.096     14.031
REMARK  1 active torsions:
REMARK  status: ('A' for Active; 'I' for Inactive)
REMARK    1  A    between atoms: C_5  and  N_9 
ROOT
HETATM    1  C   UNL     1      13.684  -4.431 -24.096  1.00  0.00     0.048 C 
HETATM    2  C   UNL     1      13.709  -3.966 -22.669  1.00  0.00    -0.061 A 
HETATM    3  C   UNL     1      14.903  -3.687 -22.014  1.00  0.00     0.009 A 
HETATM    4  C   UNL     1      14.906  -3.337 -20.658  1.00  0.00     0.031 A 
HETATM    5  C   UNL     1      13.713  -3.243 -19.920  1.00  0.00     0.051 A 
HETATM    6  C   UNL     1      12.496  -3.517 -20.581  1.00  0.00    -0.034 A 
HETATM    7  C   UNL     1      11.164  -3.571 -19.879  1.00  0.00     0.050 C 
HETATM    8  C   UNL     1      12.512  -3.854 -21.954  1.00  0.00     0.015 A 
ENDROOT
BRANCH   5   9
HETATM    9  N   UNL     1      13.776  -3.027 -18.514  1.00  0.00    -0.251 N 
HETATM   10  C   UNL     1      13.759  -1.790 -17.902  1.00  0.00     0.236 C 
HETATM   11  O   UNL     1      13.942  -0.696 -18.413  1.00  0.00    -0.272 OA
HETATM   12  C   UNL     1      13.561  -1.999 -16.410  1.00  0.00     0.096 C 
HETATM   13  C   UNL     1      14.631  -1.404 -15.467  1.00  0.00    -0.000 C 
HETATM   14  C   UNL     1      13.753  -3.503 -16.235  1.00  0.00     0.096 C 
HETATM   15  C   UNL     1      14.252  -1.694 -13.993  1.00  0.00     0.006 C 
HETATM   16  C   UNL     1      15.792  -2.384 -15.630  1.00  0.00     0.011 C 
HETATM   17  C   UNL     1      14.395  -3.223 -13.881  1.00  0.00     0.006 C 
HETATM   18  C   UNL     1      14.940  -3.606 -15.269  1.00  0.00    -0.000 C 
HETATM   19  C   UNL     1      14.016  -4.034 -17.613  1.00  0.00     0.236 C 
HETATM   20  O   UNL     1      14.341  -5.194 -17.820  1.00  0.00    -0.272 OA
ENDBRANCH   5   9
TORSDOF 1
ENDMDL
