MODEL 1
REMARK VINA RESULT:      -8.2      0.000      0.000
REMARK  6 active torsions:
REMARK  status: ('A' for Active; 'I' for Inactive)
REMARK    1  A    between atoms: C_6  and  N_8 
REMARK       I    between atoms: N_8  and  C_9 
REMARK    2  A    between atoms: C_9  and  C_11 
REMARK    3  A    between atoms: C_11  and  N_13 
REMARK    4  A    between atoms: C_22  and  C_23 
REMARK    5  A    between atoms: C_28  and  S_30 
REMARK    6  A    between atoms: S_30  and  N_33 
ROOT
HETATM    1  C   UNL     1      20.738  -1.441 -22.347  1.00  0.00     0.048 C 
HETATM    2  C   UNL     1      20.689  -0.178 -21.537  1.00  0.00    -0.060 A 
HETATM    3  C   UNL     1      21.777   0.700 -21.534  1.00  0.00     0.007 A 
HETATM    4  C   UNL     1      21.744   1.847 -20.750  1.00  0.00     0.003 A 
HETATM    5  C   UNL     1      20.634   2.113 -19.943  1.00  0.00     0.029 A 
HETATM    6  C   UNL     1      19.538   1.245 -19.915  1.00  0.00     0.035 A 
HETATM    7  C   UNL     1      19.559   0.119 -20.750  1.00  0.00     0.036 A 
ENDROOT
BRANCH   6   8
HETATM    8  N   UNL     1      18.417   1.435 -19.070  1.00  0.00    -0.325 N 
HETATM    9  C   UNL     1      17.193   1.968 -19.451  1.00  0.00     0.246 C 
HETATM   10  O   UNL     1      16.879   2.263 -20.606  1.00  0.00    -0.271 OA
HETATM   11  HN  UNL     1      18.559   1.327 -18.072  1.00  0.00     0.169 HD
BRANCH   9  12
HETATM   12  C   UNL     1      16.118   2.015 -18.340  1.00  0.00     0.199 C 
HETATM   13  C   UNL     1      15.002   2.949 -18.806  1.00  0.00     0.044 C 
BRANCH  12  14
HETATM   14  N   UNL     1      15.654   0.675 -17.931  1.00  0.00    -0.243 N 
HETATM   15  C   UNL     1      15.253   0.517 -16.610  1.00  0.00     0.269 C 
HETATM   16  O   UNL     1      15.307   1.410 -15.768  1.00  0.00    -0.266 OA
HETATM   17  C   UNL     1      14.804  -0.843 -16.222  1.00  0.00     0.020 C 
HETATM   18  C   UNL     1      14.712  -1.098 -14.741  1.00  0.00     0.045 C 
HETATM   19  C   UNL     1      14.532  -1.775 -17.156  1.00  0.00    -0.017 C 
HETATM   20  C   UNL     1      13.948  -2.371 -14.388  1.00  0.00     0.005 C 
HETATM   21  C   UNL     1      14.376  -3.515 -15.293  1.00  0.00     0.005 C 
HETATM   22  C   UNL     1      14.112  -3.168 -16.758  1.00  0.00     0.042 C 
HETATM   23  C   UNL     1      14.796  -1.371 -18.580  1.00  0.00     0.065 C 
HETATM   24  N   UNL     1      15.368  -0.251 -18.912  1.00  0.00    -0.294 N 
HETATM   25  HN  UNL     1      15.603  -0.060 -19.887  1.00  0.00     0.187 HD
BRANCH  23  26
HETATM   26  C   UNL     1      14.483  -2.341 -19.687  1.00  0.00    -0.006 C 
HETATM   27  C   UNL     1      15.464  -2.966 -20.462  1.00  0.00     0.014 C 
HETATM   28  C   UNL     1      15.116  -3.686 -21.611  1.00  0.00     0.009 C 
HETATM   29  C   UNL     1      13.775  -3.842 -21.983  1.00  0.00    -0.039 C 
HETATM   30  C   UNL     1      13.456  -4.541 -23.279  1.00  0.00     0.050 C 
HETATM   31  C   UNL     1      12.784  -3.297 -21.143  1.00  0.00     0.081 C 
HETATM   32  C   UNL     1      13.137  -2.579 -19.989  1.00  0.00     0.039 C 
BRANCH  31  33
HETATM   33  S   UNL     1      11.073  -3.395 -21.610  1.00  0.00     0.239 S 
HETATM   34  O   UNL     1      10.919  -2.689 -22.860  1.00  0.00    -0.206 OA
HETATM   35  O   UNL     1      10.605  -4.744 -21.405  1.00  0.00    -0.206 OA
BRANCH  33  36
HETATM   36  N   UNL     1      10.255  -2.471 -20.472  1.00  0.00    -0.225 NA
HETATM   37  HN1 UNL     1       9.287  -2.337 -20.771  1.00  0.00     0.136 HD
HETATM   38  HN2 UNL     1      10.341  -2.909 -19.555  1.00  0.00     0.136 HD
ENDBRANCH  33  36
ENDBRANCH  31  33
ENDBRANCH  23  26
ENDBRANCH  12  14
ENDBRANCH   9  12
ENDBRANCH   6   8
TORSDOF 6
ENDMDL
MODEL 2
REMARK VINA RESULT:      -8.0      3.251      7.928
REMARK  6 active torsions:
REMARK  status: ('A' for Active; 'I' for Inactive)
REMARK    1  A    between atoms: C_6  and  N_8 
REMARK       I    between atoms: N_8  and  C_9 
REMARK    2  A    between atoms: C_9  and  C_11 
REMARK    3  A    between atoms: C_11  and  N_13 
REMARK    4  A    between atoms: C_22  and  C_23 
REMARK    5  A    between atoms: C_28  and  S_30 
REMARK    6  A    between atoms: S_30  and  N_33 
ROOT
HETATM    1  C   UNL     1      13.790  -4.830 -24.212  1.00  0.00     0.048 C 
HETATM    2  C   UNL     1      13.100  -4.113 -23.088  1.00  0.00    -0.060 A 
HETATM    3  C   UNL     1      11.723  -3.869 -23.146  1.00  0.00     0.007 A 
HETATM    4  C   UNL     1      11.097  -3.169 -22.123  1.00  0.00     0.003 A 
HETATM    5  C   UNL     1      11.843  -2.683 -21.046  1.00  0.00     0.029 A 
HETATM    6  C   UNL     1      13.222  -2.899 -20.968  1.00  0.00     0.035 A 
HETATM    7  C   UNL     1      13.836  -3.653 -21.978  1.00  0.00     0.036 A 
ENDROOT
BRANCH   6   8
HETATM    8  N   UNL     1      14.034  -2.376 -19.932  1.00  0.00    -0.325 N 
HETATM    9  C   UNL     1      14.311  -3.001 -18.723  1.00  0.00     0.246 C 
HETATM   10  O   UNL     1      13.966  -4.145 -18.423  1.00  0.00    -0.271 OA
HETATM   11  HN  UNL     1      14.309  -1.402 -19.998  1.00  0.00     0.169 HD
BRANCH   9  12
HETATM   12  C   UNL     1      15.274  -2.232 -17.788  1.00  0.00     0.199 C 
HETATM   13  C   UNL     1      16.314  -3.224 -17.267  1.00  0.00     0.044 C 
BRANCH  12  14
HETATM   14  N   UNL     1      15.850  -1.027 -18.418  1.00  0.00    -0.243 N 
HETATM   15  C   UNL     1      15.361   0.203 -17.999  1.00  0.00     0.269 C 
HETATM   16  O   UNL     1      14.458   0.338 -17.178  1.00  0.00    -0.266 OA
HETATM   17  C   UNL     1      15.947   1.397 -18.659  1.00  0.00     0.020 C 
HETATM   18  C   UNL     1      15.185   2.682 -18.470  1.00  0.00     0.045 C 
HETATM   19  C   UNL     1      17.072   1.299 -19.394  1.00  0.00    -0.017 C 
HETATM   20  C   UNL     1      15.975   3.924 -18.875  1.00  0.00     0.005 C 
HETATM   21  C   UNL     1      16.686   3.692 -20.199  1.00  0.00     0.005 C 
HETATM   22  C   UNL     1      17.645   2.506 -20.094  1.00  0.00     0.042 C 
HETATM   23  C   UNL     1      17.623  -0.089 -19.564  1.00  0.00     0.065 C 
HETATM   24  N   UNL     1      17.011  -1.159 -19.150  1.00  0.00    -0.294 N 
HETATM   25  HN  UNL     1      17.384  -2.084 -19.365  1.00  0.00     0.187 HD
BRANCH  23  26
HETATM   26  C   UNL     1      18.899  -0.281 -20.341  1.00  0.00    -0.006 C 
HETATM   27  C   UNL     1      18.932  -0.711 -21.669  1.00  0.00     0.014 C 
HETATM   28  C   UNL     1      20.141  -1.079 -22.271  1.00  0.00     0.009 C 
HETATM   29  C   UNL     1      21.352  -0.975 -21.576  1.00  0.00    -0.039 C 
HETATM   30  C   UNL     1      22.613  -1.473 -22.231  1.00  0.00     0.050 C 
HETATM   31  C   UNL     1      21.325  -0.443 -20.271  1.00  0.00     0.081 C 
HETATM   32  C   UNL     1      20.111  -0.071 -19.672  1.00  0.00     0.039 C 
BRANCH  31  33
HETATM   33  S   UNL     1      22.820  -0.365 -19.315  1.00  0.00     0.239 S 
HETATM   34  O   UNL     1      23.178  -1.716 -18.951  1.00  0.00    -0.206 OA
HETATM   35  O   UNL     1      23.738   0.550 -19.948  1.00  0.00    -0.206 OA
BRANCH  33  36
HETATM   36  N   UNL     1      22.381   0.383 -17.877  1.00  0.00    -0.225 NA
HETATM   37  HN1 UNL     1      22.475  -0.278 -17.104  1.00  0.00     0.136 HD
HETATM   38  HN2 UNL     1      22.932   1.233 -17.755  1.00  0.00     0.136 HD
ENDBRANCH  33  36
ENDBRANCH  31  33
ENDBRANCH  23  26
ENDBRANCH  12  14
ENDBRANCH   9  12
ENDBRANCH   6   8
TORSDOF 6
ENDMDL
MODEL 3
REMARK VINA RESULT:      -7.9      0.576      1.240
REMARK  6 active torsions:
REMARK  status: ('A' for Active; 'I' for Inactive)
REMARK    1  A    between atoms: C_6  and  N_8 
REMARK       I    between atoms: N_8  and  C_9 
REMARK    2  A    between atoms: C_9  and  C_11 
REMARK    3  A    between atoms: C_11  and  N_13 
REMARK    4  A    between atoms: C_22  and  C_23 
REMARK    5  A    between atoms: C_28  and  S_30 
REMARK    6  A    between atoms: S_30  and  N_33 
ROOT
HETATM    1  C   UNL     1      22.530   1.814 -21.148  1.00  0.00     0.048 C 
HETATM    2  C   UNL     1      21.371   0.862 -21.095  1.00  0.00    -0.060 A 
HETATM    3  C   UNL     1      21.296  -0.206 -21.996  1.00  0.00     0.007 A 
HETATM    4  C   UNL     1      20.200  -1.061 -21.971  1.00  0.00     0.003 A 
HETATM    5  C   UNL     1      19.160  -0.841 -21.065  1.00  0.00     0.029 A 
HETATM    6  C   UNL     1      19.202   0.227 -20.163  1.00  0.00     0.035 A 
HETATM    7  C   UNL     1      20.336   1.051 -20.159  1.00  0.00     0.036 A 
ENDROOT
BRANCH   6   8
HETATM    8  N   UNL     1      18.147   0.531 -19.268  1.00  0.00    -0.325 N 
HETATM    9  C   UNL     1      17.164   1.491 -19.467  1.00  0.00     0.246 C 
HETATM   10  O   UNL     1      17.016   2.147 -20.499  1.00  0.00    -0.271 OA
HETATM   11  HN  UNL     1      18.196   0.138 -18.334  1.00  0.00     0.169 HD
BRANCH   9  12
HETATM   12  C   UNL     1      16.096   1.583 -18.353  1.00  0.00     0.199 C 
HETATM   13  C   UNL     1      15.064   2.628 -18.777  1.00  0.00     0.044 C 
BRANCH  12  14
HETATM   14  N   UNL     1      15.517   0.272 -17.998  1.00  0.00    -0.243 N 
HETATM   15  C   UNL     1      15.046   0.116 -16.701  1.00  0.00     0.269 C 
HETATM   16  O   UNL     1      15.124   0.983 -15.835  1.00  0.00    -0.266 OA
HETATM   17  C   UNL     1      14.483  -1.217 -16.367  1.00  0.00     0.020 C 
HETATM   18  C   UNL     1      14.305  -1.496 -14.899  1.00  0.00     0.045 C 
HETATM   19  C   UNL     1      14.188  -2.106 -17.336  1.00  0.00    -0.017 C 
HETATM   20  C   UNL     1      13.436  -2.717 -14.612  1.00  0.00     0.005 C 
HETATM   21  C   UNL     1      13.822  -3.870 -15.525  1.00  0.00     0.005 C 
HETATM   22  C   UNL     1      13.652  -3.473 -16.992  1.00  0.00     0.042 C 
HETATM   23  C   UNL     1      14.546  -1.691 -18.736  1.00  0.00     0.065 C 
HETATM   24  N   UNL     1      15.212  -0.609 -19.014  1.00  0.00    -0.294 N 
HETATM   25  HN  UNL     1      15.505  -0.414 -19.972  1.00  0.00     0.187 HD
BRANCH  23  26
HETATM   26  C   UNL     1      14.216  -2.612 -19.880  1.00  0.00    -0.006 C 
HETATM   27  C   UNL     1      15.185  -3.240 -20.665  1.00  0.00     0.014 C 
HETATM   28  C   UNL     1      14.829  -3.908 -21.842  1.00  0.00     0.009 C 
HETATM   29  C   UNL     1      13.488  -4.008 -22.235  1.00  0.00    -0.039 C 
HETATM   30  C   UNL     1      13.163  -4.651 -23.557  1.00  0.00     0.050 C 
HETATM   31  C   UNL     1      12.505  -3.462 -21.387  1.00  0.00     0.081 C 
HETATM   32  C   UNL     1      12.866  -2.796 -20.204  1.00  0.00     0.039 C 
BRANCH  31  33
HETATM   33  S   UNL     1      10.798  -3.488 -21.876  1.00  0.00     0.239 S 
HETATM   34  O   UNL     1      10.676  -2.706 -23.083  1.00  0.00    -0.206 OA
HETATM   35  O   UNL     1      10.294  -4.835 -21.755  1.00  0.00    -0.206 OA
BRANCH  33  36
HETATM   36  N   UNL     1       9.990  -2.613 -20.692  1.00  0.00    -0.225 NA
HETATM   37  HN1 UNL     1       9.822  -3.209 -19.880  1.00  0.00     0.136 HD
HETATM   38  HN2 UNL     1      10.519  -1.768 -20.475  1.00  0.00     0.136 HD
ENDBRANCH  33  36
ENDBRANCH  31  33
ENDBRANCH  23  26
ENDBRANCH  12  14
ENDBRANCH   9  12
ENDBRANCH   6   8
TORSDOF 6
ENDMDL
MODEL 4
REMARK VINA RESULT:      -7.9     10.660     15.874
REMARK  6 active torsions:
REMARK  status: ('A' for Active; 'I' for Inactive)
REMARK    1  A    between atoms: C_6  and  N_8 
REMARK       I    between atoms: N_8  and  C_9 
REMARK    2  A    between atoms: C_9  and  C_11 
REMARK    3  A    between atoms: C_11  and  N_13 
REMARK    4  A    between atoms: C_22  and  C_23 
REMARK    5  A    between atoms: C_28  and  S_30 
REMARK    6  A    between atoms: S_30  and  N_33 
ROOT
HETATM    1  C   UNL     1      15.281 -15.132 -26.417  1.00  0.00     0.048 C 
HETATM    2  C   UNL     1      15.436 -15.423 -27.881  1.00  0.00    -0.060 A 
HETATM    3  C   UNL     1      15.974 -16.643 -28.304  1.00  0.00     0.007 A 
HETATM    4  C   UNL     1      16.154 -16.892 -29.659  1.00  0.00     0.003 A 
HETATM    5  C   UNL     1      15.823 -15.914 -30.602  1.00  0.00     0.029 A 
HETATM    6  C   UNL     1      15.297 -14.680 -30.207  1.00  0.00     0.035 A 
HETATM    7  C   UNL     1      15.069 -14.460 -28.841  1.00  0.00     0.036 A 
ENDROOT
BRANCH   6   8
HETATM    8  N   UNL     1      15.004 -13.634 -31.115  1.00  0.00    -0.325 N 
HETATM    9  C   UNL     1      15.836 -12.562 -31.416  1.00  0.00     0.246 C 
HETATM   10  O   UNL     1      16.989 -12.426 -31.005  1.00  0.00    -0.271 OA
HETATM   11  HN  UNL     1      14.052 -13.561 -31.456  1.00  0.00     0.169 HD
BRANCH   9  12
HETATM   12  C   UNL     1      15.294 -11.586 -32.485  1.00  0.00     0.199 C 
HETATM   13  C   UNL     1      13.795 -11.844 -32.639  1.00  0.00     0.044 C 
BRANCH  12  14
HETATM   14  N   UNL     1      15.640 -10.177 -32.210  1.00  0.00    -0.243 N 
HETATM   15  C   UNL     1      15.681  -9.310 -33.293  1.00  0.00     0.269 C 
HETATM   16  O   UNL     1      15.491  -9.657 -34.455  1.00  0.00    -0.266 OA
HETATM   17  C   UNL     1      16.046  -7.903 -32.989  1.00  0.00     0.020 C 
HETATM   18  C   UNL     1      16.431  -7.062 -34.177  1.00  0.00     0.045 C 
HETATM   19  C   UNL     1      16.048  -7.447 -31.721  1.00  0.00    -0.017 C 
HETATM   20  C   UNL     1      16.479  -5.567 -33.875  1.00  0.00     0.005 C 
HETATM   21  C   UNL     1      17.183  -5.315 -32.551  1.00  0.00     0.005 C 
HETATM   22  C   UNL     1      16.455  -6.028 -31.412  1.00  0.00     0.042 C 
HETATM   23  C   UNL     1      15.749  -8.468 -30.658  1.00  0.00     0.065 C 
HETATM   24  N   UNL     1      15.617  -9.738 -30.902  1.00  0.00    -0.294 N 
HETATM   25  HN  UNL     1      15.499 -10.402 -30.136  1.00  0.00     0.187 HD
BRANCH  23  26
HETATM   26  C   UNL     1      15.695  -8.031 -29.219  1.00  0.00    -0.006 C 
HETATM   27  C   UNL     1      16.784  -8.123 -28.348  1.00  0.00     0.014 C 
HETATM   28  C   UNL     1      16.620  -7.909 -26.974  1.00  0.00     0.009 C 
HETATM   29  C   UNL     1      15.374  -7.546 -26.446  1.00  0.00    -0.039 C 
HETATM   30  C   UNL     1      15.225  -7.422 -24.953  1.00  0.00     0.050 C 
HETATM   31  C   UNL     1      14.303  -7.355 -27.341  1.00  0.00     0.081 C 
HETATM   32  C   UNL     1      14.473  -7.567 -28.719  1.00  0.00     0.039 C 
BRANCH  31  33
HETATM   33  S   UNL     1      12.684  -6.975 -26.719  1.00  0.00     0.239 S 
HETATM   34  O   UNL     1      12.204  -8.137 -26.008  1.00  0.00    -0.206 OA
HETATM   35  O   UNL     1      12.698  -5.651 -26.146  1.00  0.00    -0.206 OA
BRANCH  33  36
HETATM   36  N   UNL     1      11.709  -6.851 -28.081  1.00  0.00    -0.225 NA
HETATM   37  HN1 UNL     1      12.293  -6.719 -28.909  1.00  0.00     0.136 HD
HETATM   38  HN2 UNL     1      11.101  -7.668 -28.137  1.00  0.00     0.136 HD
ENDBRANCH  33  36
ENDBRANCH  31  33
ENDBRANCH  23  26
ENDBRANCH  12  14
ENDBRANCH   9  12
ENDBRANCH   6   8
TORSDOF 6
ENDMDL
MODEL 5
REMARK VINA RESULT:      -7.8      1.188      1.452
REMARK  6 active torsions:
REMARK  status: ('A' for Active; 'I' for Inactive)
REMARK    1  A    between atoms: C_6  and  N_8 
REMARK       I    between atoms: N_8  and  C_9 
REMARK    2  A    between atoms: C_9  and  C_11 
REMARK    3  A    between atoms: C_11  and  N_13 
REMARK    4  A    between atoms: C_22  and  C_23 
REMARK    5  A    between atoms: C_28  and  S_30 
REMARK    6  A    between atoms: S_30  and  N_33 
ROOT
HETATM    1  C   UNL     1      20.976  -0.269 -21.641  1.00  0.00     0.048 C 
HETATM    2  C   UNL     1      20.196   0.917 -21.156  1.00  0.00    -0.060 A 
HETATM    3  C   UNL     1      20.747   2.201 -21.229  1.00  0.00     0.007 A 
HETATM    4  C   UNL     1      20.038   3.291 -20.740  1.00  0.00     0.003 A 
HETATM    5  C   UNL     1      18.784   3.106 -20.152  1.00  0.00     0.029 A 
HETATM    6  C   UNL     1      18.215   1.833 -20.052  1.00  0.00     0.035 A 
HETATM    7  C   UNL     1      18.915   0.746 -20.596  1.00  0.00     0.036 A 
ENDROOT
BRANCH   6   8
HETATM    8  N   UNL     1      16.978   1.582 -19.410  1.00  0.00    -0.325 N 
HETATM    9  C   UNL     1      16.805   1.301 -18.060  1.00  0.00     0.246 C 
HETATM   10  O   UNL     1      17.699   1.328 -17.213  1.00  0.00    -0.271 OA
HETATM   11  HN  UNL     1      16.165   1.432 -19.998  1.00  0.00     0.169 HD
BRANCH   9  12
HETATM   12  C   UNL     1      15.338   1.119 -17.606  1.00  0.00     0.199 C 
HETATM   13  C   UNL     1      14.454   1.954 -18.532  1.00  0.00     0.044 C 
BRANCH  12  14
HETATM   14  N   UNL     1      14.938  -0.298 -17.503  1.00  0.00    -0.243 N 
HETATM   15  C   UNL     1      14.568  -0.764 -16.248  1.00  0.00     0.269 C 
HETATM   16  O   UNL     1      14.599  -0.081 -15.228  1.00  0.00    -0.266 OA
HETATM   17  C   UNL     1      14.184  -2.196 -16.171  1.00  0.00     0.020 C 
HETATM   18  C   UNL     1      14.129  -2.778 -14.784  1.00  0.00     0.045 C 
HETATM   19  C   UNL     1      13.934  -2.907 -17.287  1.00  0.00    -0.017 C 
HETATM   20  C   UNL     1      13.425  -4.131 -14.718  1.00  0.00     0.005 C 
HETATM   21  C   UNL     1      13.885  -5.024 -15.860  1.00  0.00     0.005 C 
HETATM   22  C   UNL     1      13.580  -4.371 -17.208  1.00  0.00     0.042 C 
HETATM   23  C   UNL     1      14.155  -2.183 -18.587  1.00  0.00     0.065 C 
HETATM   24  N   UNL     1      14.673  -0.993 -18.665  1.00  0.00    -0.294 N 
HETATM   25  HN  UNL     1      14.882  -0.579 -19.574  1.00  0.00     0.187 HD
BRANCH  23  26
HETATM   26  C   UNL     1      13.862  -2.895 -19.881  1.00  0.00    -0.006 C 
HETATM   27  C   UNL     1      14.853  -3.275 -20.789  1.00  0.00     0.014 C 
HETATM   28  C   UNL     1      14.513  -3.735 -22.066  1.00  0.00     0.009 C 
HETATM   29  C   UNL     1      13.172  -3.877 -22.447  1.00  0.00    -0.039 C 
HETATM   30  C   UNL     1      12.856  -4.282 -23.862  1.00  0.00     0.050 C 
HETATM   31  C   UNL     1      12.177  -3.591 -21.492  1.00  0.00     0.081 C 
HETATM   32  C   UNL     1      12.522  -3.133 -20.210  1.00  0.00     0.039 C 
BRANCH  31  33
HETATM   33  S   UNL     1      10.462  -3.674 -21.946  1.00  0.00     0.239 S 
HETATM   34  O   UNL     1      10.276  -2.843 -23.112  1.00  0.00    -0.206 OA
HETATM   35  O   UNL     1      10.023  -5.047 -21.878  1.00  0.00    -0.206 OA
BRANCH  33  36
HETATM   36  N   UNL     1       9.642  -2.892 -20.706  1.00  0.00    -0.225 NA
HETATM   37  HN1 UNL     1      10.313  -2.421 -20.096  1.00  0.00     0.136 HD
HETATM   38  HN2 UNL     1       8.944  -2.265 -21.105  1.00  0.00     0.136 HD
ENDBRANCH  33  36
ENDBRANCH  31  33
ENDBRANCH  23  26
ENDBRANCH  12  14
ENDBRANCH   9  12
ENDBRANCH   6   8
TORSDOF 6
ENDMDL
MODEL 6
REMARK VINA RESULT:      -7.7      2.520      3.114
REMARK  6 active torsions:
REMARK  status: ('A' for Active; 'I' for Inactive)
REMARK    1  A    between atoms: C_6  and  N_8 
REMARK       I    between atoms: N_8  and  C_9 
REMARK    2  A    between atoms: C_9  and  C_11 
REMARK    3  A    between atoms: C_11  and  N_13 
REMARK    4  A    between atoms: C_22  and  C_23 
REMARK    5  A    between atoms: C_28  and  S_30 
REMARK    6  A    between atoms: S_30  and  N_33 
ROOT
HETATM    1  C   UNL     1      23.136  -2.279 -20.995  1.00  0.00     0.048 C 
HETATM    2  C   UNL     1      21.679  -1.929 -21.080  1.00  0.00    -0.060 A 
HETATM    3  C   UNL     1      21.133  -1.472 -22.284  1.00  0.00     0.007 A 
HETATM    4  C   UNL     1      19.793  -1.109 -22.347  1.00  0.00     0.003 A 
HETATM    5  C   UNL     1      18.994  -1.176 -21.203  1.00  0.00     0.029 A 
HETATM    6  C   UNL     1      19.517  -1.615 -19.983  1.00  0.00     0.035 A 
HETATM    7  C   UNL     1      20.856  -2.029 -19.942  1.00  0.00     0.036 A 
ENDROOT
BRANCH   6   8
HETATM    8  N   UNL     1      18.768  -1.642 -18.780  1.00  0.00    -0.325 N 
HETATM    9  C   UNL     1      17.831  -0.695 -18.385  1.00  0.00     0.246 C 
HETATM   10  O   UNL     1      17.448   0.251 -19.075  1.00  0.00    -0.271 OA
HETATM   11  HN  UNL     1      19.045  -2.310 -18.070  1.00  0.00     0.169 HD
BRANCH   9  12
HETATM   12  C   UNL     1      17.116  -0.993 -17.047  1.00  0.00     0.199 C 
HETATM   13  C   UNL     1      16.643   0.337 -16.461  1.00  0.00     0.044 C 
BRANCH  12  14
HETATM   14  N   UNL     1      16.053  -2.010 -17.174  1.00  0.00    -0.243 N 
HETATM   15  C   UNL     1      15.704  -2.711 -16.028  1.00  0.00     0.269 C 
HETATM   16  O   UNL     1      16.256  -2.563 -14.940  1.00  0.00    -0.266 OA
HETATM   17  C   UNL     1      14.642  -3.736 -16.187  1.00  0.00     0.020 C 
HETATM   18  C   UNL     1      14.517  -4.721 -15.055  1.00  0.00     0.045 C 
HETATM   19  C   UNL     1      13.878  -3.774 -17.296  1.00  0.00    -0.017 C 
HETATM   20  C   UNL     1      13.228  -5.538 -15.098  1.00  0.00     0.005 C 
HETATM   21  C   UNL     1      12.956  -6.024 -16.514  1.00  0.00     0.005 C 
HETATM   22  C   UNL     1      12.825  -4.840 -17.472  1.00  0.00     0.042 C 
HETATM   23  C   UNL     1      14.231  -2.782 -18.369  1.00  0.00     0.065 C 
HETATM   24  N   UNL     1      15.277  -2.011 -18.315  1.00  0.00    -0.294 N 
HETATM   25  HN  UNL     1      15.522  -1.415 -19.106  1.00  0.00     0.187 HD
BRANCH  23  26
HETATM   26  C   UNL     1      13.402  -2.734 -19.624  1.00  0.00    -0.006 C 
HETATM   27  C   UNL     1      12.261  -1.939 -19.760  1.00  0.00     0.014 C 
HETATM   28  C   UNL     1      11.409  -2.094 -20.860  1.00  0.00     0.009 C 
HETATM   29  C   UNL     1      11.707  -3.011 -21.876  1.00  0.00    -0.039 C 
HETATM   30  C   UNL     1      10.713  -3.212 -22.990  1.00  0.00     0.050 C 
HETATM   31  C   UNL     1      12.911  -3.736 -21.786  1.00  0.00     0.081 C 
HETATM   32  C   UNL     1      13.765  -3.575 -20.682  1.00  0.00     0.039 C 
BRANCH  31  33
HETATM   33  S   UNL     1      13.297  -4.970 -23.003  1.00  0.00     0.239 S 
HETATM   34  O   UNL     1      12.247  -5.960 -22.973  1.00  0.00    -0.206 OA
HETATM   35  O   UNL     1      13.730  -4.317 -24.215  1.00  0.00    -0.206 OA
BRANCH  33  36
HETATM   36  N   UNL     1      14.664  -5.751 -22.417  1.00  0.00    -0.225 NA
HETATM   37  HN1 UNL     1      14.931  -6.501 -23.057  1.00  0.00     0.136 HD
HETATM   38  HN2 UNL     1      15.404  -5.066 -22.261  1.00  0.00     0.136 HD
ENDBRANCH  33  36
ENDBRANCH  31  33
ENDBRANCH  23  26
ENDBRANCH  12  14
ENDBRANCH   9  12
ENDBRANCH   6   8
TORSDOF 6
ENDMDL
MODEL 7
REMARK VINA RESULT:      -7.7      5.576      9.724
REMARK  6 active torsions:
REMARK  status: ('A' for Active; 'I' for Inactive)
REMARK    1  A    between atoms: C_6  and  N_8 
REMARK       I    between atoms: N_8  and  C_9 
REMARK    2  A    between atoms: C_9  and  C_11 
REMARK    3  A    between atoms: C_11  and  N_13 
REMARK    4  A    between atoms: C_22  and  C_23 
REMARK    5  A    between atoms: C_28  and  S_30 
REMARK    6  A    between atoms: S_30  and  N_33 
ROOT
HETATM    1  C   UNL     1       6.438  -6.280 -20.061  1.00  0.00     0.048 C 
HETATM    2  C   UNL     1       7.273  -5.256 -20.773  1.00  0.00    -0.060 A 
HETATM    3  C   UNL     1       6.671  -4.130 -21.345  1.00  0.00     0.007 A 
HETATM    4  C   UNL     1       7.442  -3.207 -22.040  1.00  0.00     0.003 A 
HETATM    5  C   UNL     1       8.816  -3.412 -22.191  1.00  0.00     0.029 A 
HETATM    6  C   UNL     1       9.442  -4.535 -21.642  1.00  0.00     0.035 A 
HETATM    7  C   UNL     1       8.665  -5.434 -20.897  1.00  0.00     0.036 A 
ENDROOT
BRANCH   6   8
HETATM    8  N   UNL     1      10.818  -4.823 -21.818  1.00  0.00    -0.325 N 
HETATM    9  C   UNL     1      11.874  -4.128 -21.243  1.00  0.00     0.246 C 
HETATM   10  O   UNL     1      11.757  -3.220 -20.419  1.00  0.00    -0.271 OA
HETATM   11  HN  UNL     1      11.069  -5.484 -22.546  1.00  0.00     0.169 HD
BRANCH   9  12
HETATM   12  C   UNL     1      13.281  -4.686 -21.559  1.00  0.00     0.199 C 
HETATM   13  C   UNL     1      14.263  -3.514 -21.554  1.00  0.00     0.044 C 
BRANCH  12  14
HETATM   14  N   UNL     1      13.670  -5.804 -20.676  1.00  0.00    -0.243 N 
HETATM   15  C   UNL     1      14.258  -6.910 -21.274  1.00  0.00     0.269 C 
HETATM   16  O   UNL     1      14.429  -7.024 -22.485  1.00  0.00    -0.266 OA
HETATM   17  C   UNL     1      14.626  -8.026 -20.365  1.00  0.00     0.020 C 
HETATM   18  C   UNL     1      14.927  -9.338 -21.039  1.00  0.00     0.045 C 
HETATM   19  C   UNL     1      14.652  -7.850 -19.030  1.00  0.00    -0.017 C 
HETATM   20  C   UNL     1      15.608 -10.351 -20.122  1.00  0.00     0.005 C 
HETATM   21  C   UNL     1      14.929 -10.374 -18.761  1.00  0.00     0.005 C 
HETATM   22  C   UNL     1      14.989  -8.994 -18.107  1.00  0.00     0.042 C 
HETATM   23  C   UNL     1      14.205  -6.501 -18.539  1.00  0.00     0.065 C 
HETATM   24  N   UNL     1      13.702  -5.587 -19.314  1.00  0.00    -0.294 N 
HETATM   25  HN  UNL     1      13.335  -4.720 -18.921  1.00  0.00     0.187 HD
BRANCH  23  26
HETATM   26  C   UNL     1      14.240  -6.211 -17.062  1.00  0.00    -0.006 C 
HETATM   27  C   UNL     1      13.091  -6.036 -16.286  1.00  0.00     0.014 C 
HETATM   28  C   UNL     1      13.181  -5.557 -14.974  1.00  0.00     0.009 C 
HETATM   29  C   UNL     1      14.425  -5.291 -14.389  1.00  0.00    -0.039 C 
HETATM   30  C   UNL     1      14.467  -4.686 -13.011  1.00  0.00     0.050 C 
HETATM   31  C   UNL     1      15.585  -5.567 -15.139  1.00  0.00     0.081 C 
HETATM   32  C   UNL     1      15.491  -6.051 -16.454  1.00  0.00     0.039 C 
BRANCH  31  33
HETATM   33  S   UNL     1      17.185  -5.172 -14.477  1.00  0.00     0.239 S 
HETATM   34  O   UNL     1      17.351  -3.740 -14.557  1.00  0.00    -0.206 OA
HETATM   35  O   UNL     1      17.390  -5.923 -13.262  1.00  0.00    -0.206 OA
BRANCH  33  36
HETATM   36  N   UNL     1      18.283  -5.810 -15.575  1.00  0.00    -0.225 NA
HETATM   37  HN1 UNL     1      18.409  -6.808 -15.393  1.00  0.00     0.136 HD
HETATM   38  HN2 UNL     1      17.971  -5.606 -16.525  1.00  0.00     0.136 HD
ENDBRANCH  33  36
ENDBRANCH  31  33
ENDBRANCH  23  26
ENDBRANCH  12  14
ENDBRANCH   9  12
ENDBRANCH   6   8
TORSDOF 6
ENDMDL
MODEL 8
REMARK VINA RESULT:      -7.6      5.167      8.163
REMARK  6 active torsions:
REMARK  status: ('A' for Active; 'I' for Inactive)
REMARK    1  A    between atoms: C_6  and  N_8 
REMARK       I    between atoms: N_8  and  C_9 
REMARK    2  A    between atoms: C_9  and  C_11 
REMARK    3  A    between atoms: C_11  and  N_13 
REMARK    4  A    between atoms: C_22  and  C_23 
REMARK    5  A    between atoms: C_28  and  S_30 
REMARK    6  A    between atoms: S_30  and  N_33 
ROOT
HETATM    1  C   UNL     1      16.286  -7.967 -26.870  1.00  0.00     0.048 C 
HETATM    2  C   UNL     1      15.232  -6.920 -26.655  1.00  0.00    -0.060 A 
HETATM    3  C   UNL     1      15.086  -5.869 -27.567  1.00  0.00     0.007 A 
HETATM    4  C   UNL     1      14.137  -4.880 -27.342  1.00  0.00     0.003 A 
HETATM    5  C   UNL     1      13.343  -4.918 -26.192  1.00  0.00     0.029 A 
HETATM    6  C   UNL     1      13.477  -5.948 -25.257  1.00  0.00     0.035 A 
HETATM    7  C   UNL     1      14.400  -6.971 -25.520  1.00  0.00     0.036 A 
ENDROOT
BRANCH   6   8
HETATM    8  N   UNL     1      12.743  -6.000 -24.047  1.00  0.00    -0.325 N 
HETATM    9  C   UNL     1      13.191  -5.564 -22.806  1.00  0.00     0.246 C 
HETATM   10  O   UNL     1      14.257  -4.980 -22.604  1.00  0.00    -0.271 OA
HETATM   11  HN  UNL     1      11.887  -6.543 -24.040  1.00  0.00     0.169 HD
BRANCH   9  12
HETATM   12  C   UNL     1      12.166  -5.687 -21.654  1.00  0.00     0.199 C 
HETATM   13  C   UNL     1      12.184  -7.134 -21.162  1.00  0.00     0.044 C 
BRANCH  12  14
HETATM   14  N   UNL     1      12.370  -4.684 -20.591  1.00  0.00    -0.243 N 
HETATM   15  C   UNL     1      11.668  -3.491 -20.700  1.00  0.00     0.269 C 
HETATM   16  O   UNL     1      10.932  -3.213 -21.643  1.00  0.00    -0.266 OA
HETATM   17  C   UNL     1      11.903  -2.494 -19.624  1.00  0.00     0.020 C 
HETATM   18  C   UNL     1      11.431  -1.096 -19.921  1.00  0.00     0.045 C 
HETATM   19  C   UNL     1      12.525  -2.843 -18.481  1.00  0.00    -0.017 C 
HETATM   20  C   UNL     1      11.390  -0.193 -18.692  1.00  0.00     0.005 C 
HETATM   21  C   UNL     1      12.652  -0.369 -17.862  1.00  0.00     0.005 C 
HETATM   22  C   UNL     1      12.796  -1.821 -17.406  1.00  0.00     0.042 C 
HETATM   23  C   UNL     1      13.029  -4.259 -18.417  1.00  0.00     0.065 C 
HETATM   24  N   UNL     1      12.996  -5.078 -19.426  1.00  0.00    -0.294 N 
HETATM   25  HN  UNL     1      13.428  -6.000 -19.358  1.00  0.00     0.187 HD
BRANCH  23  26
HETATM   26  C   UNL     1      13.703  -4.739 -17.159  1.00  0.00    -0.006 C 
HETATM   27  C   UNL     1      13.034  -5.430 -16.146  1.00  0.00     0.014 C 
HETATM   28  C   UNL     1      13.652  -5.662 -14.911  1.00  0.00     0.009 C 
HETATM   29  C   UNL     1      14.971  -5.254 -14.679  1.00  0.00    -0.039 C 
HETATM   30  C   UNL     1      15.559  -5.437 -13.305  1.00  0.00     0.050 C 
HETATM   31  C   UNL     1      15.676  -4.649 -15.739  1.00  0.00     0.081 C 
HETATM   32  C   UNL     1      15.055  -4.422 -16.977  1.00  0.00     0.039 C 
BRANCH  31  33
HETATM   33  S   UNL     1      17.323  -4.039 -15.474  1.00  0.00     0.239 S 
HETATM   34  O   UNL     1      17.242  -2.960 -14.519  1.00  0.00    -0.206 OA
HETATM   35  O   UNL     1      18.222  -5.158 -15.325  1.00  0.00    -0.206 OA
BRANCH  33  36
HETATM   36  N   UNL     1      17.761  -3.318 -16.926  1.00  0.00    -0.225 NA
HETATM   37  HN1 UNL     1      18.102  -2.371 -16.750  1.00  0.00     0.136 HD
HETATM   38  HN2 UNL     1      18.437  -3.911 -17.409  1.00  0.00     0.136 HD
ENDBRANCH  33  36
ENDBRANCH  31  33
ENDBRANCH  23  26
ENDBRANCH  12  14
ENDBRANCH   9  12
ENDBRANCH   6   8
TORSDOF 6
ENDMDL
MODEL 9
REMARK VINA RESULT:      -7.6      4.394      6.709
REMARK  6 active torsions:
REMARK  status: ('A' for Active; 'I' for Inactive)
REMARK    1  A    between atoms: C_6  and  N_8 
REMARK       I    between atoms: N_8  and  C_9 
REMARK    2  A    between atoms: C_9  and  C_11 
REMARK    3  A    between atoms: C_11  and  N_13 
REMARK    4  A    between atoms: C_22  and  C_23 
REMARK    5  A    between atoms: C_28  and  S_30 
REMARK    6  A    between atoms: S_30  and  N_33 
ROOT
HETATM    1  C   UNL     1      14.090  -4.841 -23.707  1.00  0.00     0.048 C 
HETATM    2  C   UNL     1      13.163  -4.052 -22.828  1.00  0.00    -0.060 A 
HETATM    3  C   UNL     1      11.835  -3.842 -23.214  1.00  0.00     0.007 A 
HETATM    4  C   UNL     1      10.992  -3.076 -22.418  1.00  0.00     0.003 A 
HETATM    5  C   UNL     1      11.475  -2.493 -21.243  1.00  0.00     0.029 A 
HETATM    6  C   UNL     1      12.802  -2.675 -20.840  1.00  0.00     0.035 A 
HETATM    7  C   UNL     1      13.630  -3.493 -21.623  1.00  0.00     0.036 A 
ENDROOT
BRANCH   6   8
HETATM    8  N   UNL     1      13.358  -2.057 -19.694  1.00  0.00    -0.325 N 
HETATM    9  C   UNL     1      13.117  -2.422 -18.376  1.00  0.00     0.246 C 
HETATM   10  O   UNL     1      12.459  -3.402 -18.023  1.00  0.00    -0.271 OA
HETATM   11  HN  UNL     1      13.844  -1.176 -19.825  1.00  0.00     0.169 HD
BRANCH   9  12
HETATM   12  C   UNL     1      13.897  -1.613 -17.313  1.00  0.00     0.199 C 
HETATM   13  C   UNL     1      12.922  -1.246 -16.195  1.00  0.00     0.044 C 
BRANCH  12  14
HETATM   14  N   UNL     1      15.120  -2.298 -16.849  1.00  0.00    -0.243 N 
HETATM   15  C   UNL     1      15.930  -1.612 -15.954  1.00  0.00     0.269 C 
HETATM   16  O   UNL     1      15.709  -0.467 -15.569  1.00  0.00    -0.266 OA
HETATM   17  C   UNL     1      17.160  -2.318 -15.515  1.00  0.00     0.020 C 
HETATM   18  C   UNL     1      18.196  -1.458 -14.841  1.00  0.00     0.045 C 
HETATM   19  C   UNL     1      17.321  -3.636 -15.743  1.00  0.00    -0.017 C 
HETATM   20  C   UNL     1      19.279  -2.258 -14.122  1.00  0.00     0.005 C 
HETATM   21  C   UNL     1      19.752  -3.412 -14.993  1.00  0.00     0.005 C 
HETATM   22  C   UNL     1      18.587  -4.343 -15.329  1.00  0.00     0.042 C 
HETATM   23  C   UNL     1      16.228  -4.301 -16.534  1.00  0.00     0.065 C 
HETATM   24  N   UNL     1      15.245  -3.651 -17.084  1.00  0.00    -0.294 N 
HETATM   25  HN  UNL     1      14.576  -4.135 -17.683  1.00  0.00     0.187 HD
BRANCH  23  26
HETATM   26  C   UNL     1      16.313  -5.780 -16.801  1.00  0.00    -0.006 C 
HETATM   27  C   UNL     1      16.334  -6.743 -15.789  1.00  0.00     0.014 C 
HETATM   28  C   UNL     1      16.631  -8.079 -16.080  1.00  0.00     0.009 C 
HETATM   29  C   UNL     1      16.862  -8.494 -17.397  1.00  0.00    -0.039 C 
HETATM   30  C   UNL     1      17.273  -9.921 -17.649  1.00  0.00     0.050 C 
HETATM   31  C   UNL     1      16.739  -7.540 -18.426  1.00  0.00     0.081 C 
HETATM   32  C   UNL     1      16.437  -6.200 -18.130  1.00  0.00     0.039 C 
BRANCH  31  33
HETATM   33  S   UNL     1      17.102  -7.993 -20.104  1.00  0.00     0.239 S 
HETATM   34  O   UNL     1      18.536  -8.114 -20.225  1.00  0.00    -0.206 OA
HETATM   35  O   UNL     1      16.186  -9.026 -20.522  1.00  0.00    -0.206 OA
BRANCH  33  36
HETATM   36  N   UNL     1      16.689  -6.647 -21.020  1.00  0.00    -0.225 NA
HETATM   37  HN1 UNL     1      15.892  -6.872 -21.619  1.00  0.00     0.136 HD
HETATM   38  HN2 UNL     1      16.522  -5.854 -20.401  1.00  0.00     0.136 HD
ENDBRANCH  33  36
ENDBRANCH  31  33
ENDBRANCH  23  26
ENDBRANCH  12  14
ENDBRANCH   9  12
ENDBRANCH   6   8
TORSDOF 6
ENDMDL
