MODEL 1
REMARK VINA RESULT:      -7.7      0.000      0.000
REMARK  3 active torsions:
REMARK  status: ('A' for Active; 'I' for Inactive)
REMARK    1  A    between atoms: C_5  and  N_9 
REMARK       I    between atoms: N_9  and  C_10 
REMARK    2  A    between atoms: C_10  and  C_12 
REMARK    3  A    between atoms: C_14  and  C_15 
ROOT
HETATM    1  C   UNL     1       9.053  -5.355 -22.005  1.00  0.00     0.048 C 
HETATM    2  C   UNL     1       9.917  -4.489 -21.139  1.00  0.00    -0.061 A 
HETATM    3  C   UNL     1       9.983  -3.120 -21.352  1.00  0.00     0.009 A 
HETATM    4  C   UNL     1      10.821  -2.321 -20.572  1.00  0.00     0.030 A 
HETATM    5  C   UNL     1      11.630  -2.855 -19.556  1.00  0.00     0.041 A 
HETATM    6  C   UNL     1      11.540  -4.242 -19.304  1.00  0.00    -0.035 A 
HETATM    7  C   UNL     1      12.286  -4.980 -18.224  1.00  0.00     0.050 C 
HETATM    8  C   UNL     1      10.674  -5.035 -20.098  1.00  0.00     0.015 A 
ENDROOT
BRANCH   5   9
HETATM    9  N   UNL     1      12.536  -2.030 -18.823  1.00  0.00    -0.322 N 
HETATM   10  C   UNL     1      12.205  -0.891 -18.091  1.00  0.00     0.257 C 
HETATM   11  O   UNL     1      11.074  -0.462 -17.901  1.00  0.00    -0.267 OA
HETATM   12  HN  UNL     1      13.510  -2.281 -18.879  1.00  0.00     0.169 HD
BRANCH  10  13
HETATM   13  C   UNL     1      13.322  -0.145 -17.433  1.00  0.00     0.047 A 
HETATM   14  C   UNL     1      13.854   0.957 -18.097  1.00  0.00     0.049 A 
HETATM   15  C   UNL     1      14.983   1.558 -17.575  1.00  0.00     0.051 A 
HETATM   16  N   UNL     1      15.615   1.086 -16.473  1.00  0.00    -0.354 N 
HETATM   17  C   UNL     1      15.123   0.012 -15.818  1.00  0.00     0.050 A 
HETATM   18  HN  UNL     1      16.464   1.542 -16.138  1.00  0.00     0.166 HD
HETATM   19  C   UNL     1      15.803  -0.487 -14.690  1.00  0.00    -0.033 A 
HETATM   20  C   UNL     1      13.941  -0.636 -16.244  1.00  0.00     0.008 A 
HETATM   21  C   UNL     1      17.094   0.119 -14.197  1.00  0.00     0.050 C 
HETATM   22  C   UNL     1      15.316  -1.597 -13.974  1.00  0.00     0.028 A 
HETATM   23  C   UNL     1      14.139  -2.206 -14.365  1.00  0.00     0.012 A 
HETATM   24  C   UNL     1      13.454  -1.728 -15.477  1.00  0.00     0.034 A 
HETATM   25 BR   UNL     1      13.478  -3.694 -13.406  1.00  0.00    -0.051 Br
BRANCH  15  26
HETATM   26  C   UNL     1      15.623   2.725 -18.203  1.00  0.00     0.031 A 
HETATM   27  C   UNL     1      15.767   3.016 -19.549  1.00  0.00     0.021 A 
HETATM   28  C   UNL     1      16.433   4.257 -19.781  1.00  0.00     0.008 A 
HETATM   29  C   UNL     1      16.804   4.868 -18.605  1.00  0.00     0.050 A 
HETATM   30  S   UNL     1      16.356   3.949 -17.239  1.00  0.00    -0.100 SA
ENDBRANCH  15  26
ENDBRANCH  10  13
ENDBRANCH   5   9
TORSDOF 3
ENDMDL
MODEL 2
REMARK VINA RESULT:      -7.3     11.478     15.067
REMARK  3 active torsions:
REMARK  status: ('A' for Active; 'I' for Inactive)
REMARK    1  A    between atoms: C_5  and  N_9 
REMARK       I    between atoms: N_9  and  C_10 
REMARK    2  A    between atoms: C_10  and  C_12 
REMARK    3  A    between atoms: C_14  and  C_15 
ROOT
HETATM    1  C   UNL     1      16.995  -5.051 -34.130  1.00  0.00     0.048 C 
HETATM    2  C   UNL     1      16.687  -5.894 -32.929  1.00  0.00    -0.061 A 
HETATM    3  C   UNL     1      16.387  -7.241 -33.072  1.00  0.00     0.009 A 
HETATM    4  C   UNL     1      16.058  -8.015 -31.957  1.00  0.00     0.030 A 
HETATM    5  C   UNL     1      16.008  -7.477 -30.661  1.00  0.00     0.041 A 
HETATM    6  C   UNL     1      16.351  -6.116 -30.500  1.00  0.00    -0.035 A 
HETATM    7  C   UNL     1      16.407  -5.382 -29.187  1.00  0.00     0.050 C 
HETATM    8  C   UNL     1      16.694  -5.349 -31.642  1.00  0.00     0.015 A 
ENDROOT
BRANCH   5   9
HETATM    9  N   UNL     1      15.595  -8.269 -29.548  1.00  0.00    -0.322 N 
HETATM   10  C   UNL     1      16.428  -8.841 -28.588  1.00  0.00     0.257 C 
HETATM   11  O   UNL     1      17.641  -8.690 -28.508  1.00  0.00    -0.267 OA
HETATM   12  HN  UNL     1      14.607  -8.461 -29.481  1.00  0.00     0.169 HD
BRANCH  10  13
HETATM   13  C   UNL     1      15.787  -9.676 -27.527  1.00  0.00     0.047 A 
HETATM   14  C   UNL     1      15.814 -11.060 -27.676  1.00  0.00     0.049 A 
HETATM   15  C   UNL     1      15.094 -11.834 -26.787  1.00  0.00     0.051 A 
HETATM   16  N   UNL     1      14.328 -11.293 -25.808  1.00  0.00    -0.354 N 
HETATM   17  C   UNL     1      14.278  -9.952 -25.649  1.00  0.00     0.050 A 
HETATM   18  HN  UNL     1      13.787 -11.899 -25.191  1.00  0.00     0.166 HD
HETATM   19  C   UNL     1      13.457  -9.400 -24.647  1.00  0.00    -0.033 A 
HETATM   20  C   UNL     1      15.025  -9.082 -26.476  1.00  0.00     0.008 A 
HETATM   21  C   UNL     1      12.595 -10.256 -23.752  1.00  0.00     0.050 C 
HETATM   22  C   UNL     1      13.386  -8.009 -24.443  1.00  0.00     0.028 A 
HETATM   23  C   UNL     1      14.147  -7.159 -25.224  1.00  0.00     0.012 A 
HETATM   24  C   UNL     1      14.963  -7.685 -26.219  1.00  0.00     0.034 A 
HETATM   25 BR   UNL     1      14.060  -5.291 -24.952  1.00  0.00    -0.051 Br
BRANCH  15  26
HETATM   26  C   UNL     1      15.055 -13.302 -26.861  1.00  0.00     0.031 A 
HETATM   27  C   UNL     1      15.040 -14.224 -25.828  1.00  0.00     0.021 A 
HETATM   28  C   UNL     1      14.983 -15.574 -26.288  1.00  0.00     0.008 A 
HETATM   29  C   UNL     1      14.982 -15.648 -27.661  1.00  0.00     0.050 A 
HETATM   30  S   UNL     1      15.055 -14.105 -28.385  1.00  0.00    -0.100 SA
ENDBRANCH  15  26
ENDBRANCH  10  13
ENDBRANCH   5   9
TORSDOF 3
ENDMDL
MODEL 3
REMARK VINA RESULT:      -7.3      4.661      6.944
REMARK  3 active torsions:
REMARK  status: ('A' for Active; 'I' for Inactive)
REMARK    1  A    between atoms: C_5  and  N_9 
REMARK       I    between atoms: N_9  and  C_10 
REMARK    2  A    between atoms: C_10  and  C_12 
REMARK    3  A    between atoms: C_14  and  C_15 
ROOT
HETATM    1  C   UNL     1       8.126  -3.541 -21.500  1.00  0.00     0.048 C 
HETATM    2  C   UNL     1       9.463  -3.833 -20.887  1.00  0.00    -0.061 A 
HETATM    3  C   UNL     1       9.937  -5.135 -20.815  1.00  0.00     0.009 A 
HETATM    4  C   UNL     1      11.163  -5.410 -20.206  1.00  0.00     0.030 A 
HETATM    5  C   UNL     1      11.959  -4.402 -19.640  1.00  0.00     0.041 A 
HETATM    6  C   UNL     1      11.504  -3.068 -19.743  1.00  0.00    -0.035 A 
HETATM    7  C   UNL     1      12.246  -1.855 -19.246  1.00  0.00     0.050 C 
HETATM    8  C   UNL     1      10.263  -2.807 -20.376  1.00  0.00     0.015 A 
ENDROOT
BRANCH   5   9
HETATM    9  N   UNL     1      13.171  -4.716 -18.954  1.00  0.00    -0.322 N 
HETATM   10  C   UNL     1      13.279  -5.246 -17.670  1.00  0.00     0.257 C 
HETATM   11  O   UNL     1      12.346  -5.593 -16.956  1.00  0.00    -0.267 OA
HETATM   12  HN  UNL     1      14.027  -4.494 -19.440  1.00  0.00     0.169 HD
BRANCH  10  13
HETATM   13  C   UNL     1      14.654  -5.458 -17.123  1.00  0.00     0.047 A 
HETATM   14  C   UNL     1      15.203  -6.735 -17.206  1.00  0.00     0.049 A 
HETATM   15  C   UNL     1      16.404  -6.979 -16.568  1.00  0.00     0.051 A 
HETATM   16  N   UNL     1      17.039  -6.037 -15.829  1.00  0.00    -0.354 N 
HETATM   17  C   UNL     1      16.521  -4.793 -15.727  1.00  0.00     0.050 A 
HETATM   18  HN  UNL     1      17.909  -6.267 -15.350  1.00  0.00     0.166 HD
HETATM   19  C   UNL     1      17.175  -3.830 -14.934  1.00  0.00    -0.033 A 
HETATM   20  C   UNL     1      15.326  -4.433 -16.390  1.00  0.00     0.008 A 
HETATM   21  C   UNL     1      18.431  -4.146 -14.159  1.00  0.00     0.050 C 
HETATM   22  C   UNL     1      16.674  -2.521 -14.811  1.00  0.00     0.028 A 
HETATM   23  C   UNL     1      15.527  -2.156 -15.491  1.00  0.00     0.012 A 
HETATM   24  C   UNL     1      14.867  -3.093 -16.278  1.00  0.00     0.034 A 
HETATM   25 BR   UNL     1      14.851  -0.399 -15.333  1.00  0.00    -0.051 Br
BRANCH  15  26
HETATM   26  C   UNL     1      17.063  -8.293 -16.592  1.00  0.00     0.031 A 
HETATM   27  C   UNL     1      17.809  -8.909 -15.601  1.00  0.00     0.021 A 
HETATM   28  C   UNL     1      18.280 -10.202 -15.981  1.00  0.00     0.008 A 
HETATM   29  C   UNL     1      17.903 -10.528 -17.263  1.00  0.00     0.050 A 
HETATM   30  S   UNL     1      16.995  -9.285 -17.999  1.00  0.00    -0.100 SA
ENDBRANCH  15  26
ENDBRANCH  10  13
ENDBRANCH   5   9
TORSDOF 3
ENDMDL
MODEL 4
REMARK VINA RESULT:      -7.3      5.125      7.253
REMARK  3 active torsions:
REMARK  status: ('A' for Active; 'I' for Inactive)
REMARK    1  A    between atoms: C_5  and  N_9 
REMARK       I    between atoms: N_9  and  C_10 
REMARK    2  A    between atoms: C_10  and  C_12 
REMARK    3  A    between atoms: C_14  and  C_15 
ROOT
HETATM    1  C   UNL     1       8.014  -3.312 -21.686  1.00  0.00     0.048 C 
HETATM    2  C   UNL     1       9.255  -3.852 -21.040  1.00  0.00    -0.061 A 
HETATM    3  C   UNL     1       9.481  -5.219 -20.981  1.00  0.00     0.009 A 
HETATM    4  C   UNL     1      10.616  -5.722 -20.341  1.00  0.00     0.030 A 
HETATM    5  C   UNL     1      11.564  -4.884 -19.731  1.00  0.00     0.041 A 
HETATM    6  C   UNL     1      11.363  -3.489 -19.821  1.00  0.00    -0.035 A 
HETATM    7  C   UNL     1      12.296  -2.439 -19.278  1.00  0.00     0.050 C 
HETATM    8  C   UNL     1      10.211  -2.996 -20.485  1.00  0.00     0.015 A 
ENDROOT
BRANCH   5   9
HETATM    9  N   UNL     1      12.675  -5.425 -19.017  1.00  0.00    -0.322 N 
HETATM   10  C   UNL     1      13.921  -5.747 -19.552  1.00  0.00     0.257 C 
HETATM   11  O   UNL     1      14.280  -5.549 -20.706  1.00  0.00    -0.267 OA
HETATM   12  HN  UNL     1      12.521  -5.624 -18.041  1.00  0.00     0.169 HD
BRANCH  10  13
HETATM   13  C   UNL     1      14.934  -6.347 -18.630  1.00  0.00     0.047 A 
HETATM   14  C   UNL     1      15.696  -5.487 -17.844  1.00  0.00     0.049 A 
HETATM   15  C   UNL     1      16.737  -6.016 -17.106  1.00  0.00     0.051 A 
HETATM   16  N   UNL     1      17.071  -7.329 -17.158  1.00  0.00    -0.354 N 
HETATM   17  C   UNL     1      16.352  -8.181 -17.922  1.00  0.00     0.050 A 
HETATM   18  HN  UNL     1      17.866  -7.673 -16.621  1.00  0.00     0.166 HD
HETATM   19  C   UNL     1      16.726  -9.538 -17.990  1.00  0.00    -0.033 A 
HETATM   20  C   UNL     1      15.235  -7.743 -18.668  1.00  0.00     0.008 A 
HETATM   21  C   UNL     1      17.931 -10.077 -17.260  1.00  0.00     0.050 C 
HETATM   22  C   UNL     1      15.996 -10.459 -18.765  1.00  0.00     0.028 A 
HETATM   23  C   UNL     1      14.879 -10.040 -19.463  1.00  0.00     0.012 A 
HETATM   24  C   UNL     1      14.496  -8.704 -19.408  1.00  0.00     0.034 A 
HETATM   25 BR   UNL     1      13.894 -11.272 -20.502  1.00  0.00    -0.051 Br
BRANCH  15  26
HETATM   26  C   UNL     1      17.601  -5.192 -16.248  1.00  0.00     0.031 A 
HETATM   27  C   UNL     1      18.617  -4.325 -16.617  1.00  0.00     0.021 A 
HETATM   28  C   UNL     1      19.229  -3.680 -15.500  1.00  0.00     0.008 A 
HETATM   29  C   UNL     1      18.683  -4.091 -14.307  1.00  0.00     0.050 A 
HETATM   30  S   UNL     1      17.448  -5.246 -14.534  1.00  0.00    -0.100 SA
ENDBRANCH  15  26
ENDBRANCH  10  13
ENDBRANCH   5   9
TORSDOF 3
ENDMDL
MODEL 5
REMARK VINA RESULT:      -7.3      4.400      7.525
REMARK  3 active torsions:
REMARK  status: ('A' for Active; 'I' for Inactive)
REMARK    1  A    between atoms: C_5  and  N_9 
REMARK       I    between atoms: N_9  and  C_10 
REMARK    2  A    between atoms: C_10  and  C_12 
REMARK    3  A    between atoms: C_14  and  C_15 
ROOT
HETATM    1  C   UNL     1      18.241 -10.615 -17.068  1.00  0.00     0.048 C 
HETATM    2  C   UNL     1      17.150  -9.601 -17.230  1.00  0.00    -0.061 A 
HETATM    3  C   UNL     1      16.239  -9.705 -18.271  1.00  0.00     0.009 A 
HETATM    4  C   UNL     1      15.249  -8.735 -18.446  1.00  0.00     0.030 A 
HETATM    5  C   UNL     1      15.133  -7.623 -17.597  1.00  0.00     0.041 A 
HETATM    6  C   UNL     1      16.031  -7.529 -16.510  1.00  0.00    -0.035 A 
HETATM    7  C   UNL     1      16.024  -6.442 -15.468  1.00  0.00     0.050 C 
HETATM    8  C   UNL     1      17.021  -8.529 -16.341  1.00  0.00     0.015 A 
ENDROOT
BRANCH   5   9
HETATM    9  N   UNL     1      14.163  -6.606 -17.841  1.00  0.00    -0.322 N 
HETATM   10  C   UNL     1      14.307  -5.517 -18.699  1.00  0.00     0.257 C 
HETATM   11  O   UNL     1      15.264  -5.303 -19.433  1.00  0.00    -0.267 OA
HETATM   12  HN  UNL     1      13.309  -6.668 -17.308  1.00  0.00     0.169 HD
BRANCH  10  13
HETATM   13  C   UNL     1      13.177  -4.540 -18.772  1.00  0.00     0.047 A 
HETATM   14  C   UNL     1      12.123  -4.821 -19.637  1.00  0.00     0.049 A 
HETATM   15  C   UNL     1      11.153  -3.857 -19.829  1.00  0.00     0.051 A 
HETATM   16  N   UNL     1      11.217  -2.635 -19.245  1.00  0.00    -0.354 N 
HETATM   17  C   UNL     1      12.236  -2.336 -18.409  1.00  0.00     0.050 A 
HETATM   18  HN  UNL     1      10.495  -1.941 -19.437  1.00  0.00     0.166 HD
HETATM   19  C   UNL     1      12.307  -1.054 -17.830  1.00  0.00    -0.033 A 
HETATM   20  C   UNL     1      13.245  -3.278 -18.108  1.00  0.00     0.008 A 
HETATM   21  C   UNL     1      11.295   0.022 -18.134  1.00  0.00     0.050 C 
HETATM   22  C   UNL     1      13.346  -0.708 -16.946  1.00  0.00     0.028 A 
HETATM   23  C   UNL     1      14.312  -1.641 -16.619  1.00  0.00     0.012 A 
HETATM   24  C   UNL     1      14.259  -2.911 -17.181  1.00  0.00     0.034 A 
HETATM   25 BR   UNL     1      15.707  -1.183 -15.430  1.00  0.00    -0.051 Br
BRANCH  15  26
HETATM   26  C   UNL     1      10.002  -4.055 -20.723  1.00  0.00     0.031 A 
HETATM   27  C   UNL     1       9.081  -3.123 -21.171  1.00  0.00     0.021 A 
HETATM   28  C   UNL     1       8.105  -3.684 -22.049  1.00  0.00     0.008 A 
HETATM   29  C   UNL     1       8.291  -5.035 -22.227  1.00  0.00     0.050 A 
HETATM   30  S   UNL     1       9.627  -5.618 -21.340  1.00  0.00    -0.100 SA
ENDBRANCH  15  26
ENDBRANCH  10  13
ENDBRANCH   5   9
TORSDOF 3
ENDMDL
MODEL 6
REMARK VINA RESULT:      -7.3      4.914      7.249
REMARK  3 active torsions:
REMARK  status: ('A' for Active; 'I' for Inactive)
REMARK    1  A    between atoms: C_5  and  N_9 
REMARK       I    between atoms: N_9  and  C_10 
REMARK    2  A    between atoms: C_10  and  C_12 
REMARK    3  A    between atoms: C_14  and  C_15 
ROOT
HETATM    1  C   UNL     1      13.570  -3.848 -13.180  1.00  0.00     0.048 C 
HETATM    2  C   UNL     1      14.369  -3.175 -14.255  1.00  0.00    -0.061 A 
HETATM    3  C   UNL     1      15.073  -3.925 -15.186  1.00  0.00     0.009 A 
HETATM    4  C   UNL     1      15.851  -3.296 -16.160  1.00  0.00     0.030 A 
HETATM    5  C   UNL     1      15.963  -1.899 -16.241  1.00  0.00     0.041 A 
HETATM    6  C   UNL     1      15.219  -1.125 -15.322  1.00  0.00    -0.035 A 
HETATM    7  C   UNL     1      15.171   0.379 -15.291  1.00  0.00     0.050 C 
HETATM    8  C   UNL     1      14.424  -1.781 -14.348  1.00  0.00     0.015 A 
ENDROOT
BRANCH   5   9
HETATM    9  N   UNL     1      16.825  -1.282 -17.196  1.00  0.00    -0.322 N 
HETATM   10  C   UNL     1      16.589  -1.164 -18.564  1.00  0.00     0.257 C 
HETATM   11  O   UNL     1      15.569  -1.508 -19.150  1.00  0.00    -0.267 OA
HETATM   12  HN  UNL     1      17.704  -0.936 -16.844  1.00  0.00     0.169 HD
BRANCH  10  13
HETATM   13  C   UNL     1      17.651  -0.518 -19.396  1.00  0.00     0.047 A 
HETATM   14  C   UNL     1      18.726  -1.300 -19.809  1.00  0.00     0.049 A 
HETATM   15  C   UNL     1      19.786  -0.680 -20.443  1.00  0.00     0.051 A 
HETATM   16  N   UNL     1      19.837   0.661 -20.633  1.00  0.00    -0.354 N 
HETATM   17  C   UNL     1      18.809   1.441 -20.231  1.00  0.00     0.050 A 
HETATM   18  HN  UNL     1      20.652   1.081 -21.079  1.00  0.00     0.166 HD
HETATM   19  C   UNL     1      18.885   2.836 -20.408  1.00  0.00    -0.033 A 
HETATM   20  C   UNL     1      17.657   0.892 -19.624  1.00  0.00     0.008 A 
HETATM   21  C   UNL     1      20.097   3.506 -21.007  1.00  0.00     0.050 C 
HETATM   22  C   UNL     1      17.831   3.682 -20.013  1.00  0.00     0.028 A 
HETATM   23  C   UNL     1      16.687   3.142 -19.456  1.00  0.00     0.012 A 
HETATM   24  C   UNL     1      16.594   1.767 -19.273  1.00  0.00     0.034 A 
HETATM   25 BR   UNL     1      15.268   4.271 -18.927  1.00  0.00    -0.051 Br
BRANCH  15  26
HETATM   26  C   UNL     1      20.969  -1.416 -20.915  1.00  0.00     0.031 A 
HETATM   27  C   UNL     1      21.280  -1.828 -22.200  1.00  0.00     0.021 A 
HETATM   28  C   UNL     1      22.533  -2.507 -22.279  1.00  0.00     0.008 A 
HETATM   29  C   UNL     1      23.133  -2.620 -21.046  1.00  0.00     0.050 A 
HETATM   30  S   UNL     1      22.191  -1.917 -19.810  1.00  0.00    -0.100 SA
ENDBRANCH  15  26
ENDBRANCH  10  13
ENDBRANCH   5   9
TORSDOF 3
ENDMDL
MODEL 7
REMARK VINA RESULT:      -7.3      6.912     10.936
REMARK  3 active torsions:
REMARK  status: ('A' for Active; 'I' for Inactive)
REMARK    1  A    between atoms: C_5  and  N_9 
REMARK       I    between atoms: N_9  and  C_10 
REMARK    2  A    between atoms: C_10  and  C_12 
REMARK    3  A    between atoms: C_14  and  C_15 
ROOT
HETATM    1  C   UNL     1      11.509  -0.315 -18.884  1.00  0.00     0.048 C 
HETATM    2  C   UNL     1      11.739  -1.655 -19.516  1.00  0.00    -0.061 A 
HETATM    3  C   UNL     1      12.266  -2.703 -18.775  1.00  0.00     0.009 A 
HETATM    4  C   UNL     1      12.520  -3.938 -19.376  1.00  0.00     0.030 A 
HETATM    5  C   UNL     1      12.266  -4.175 -20.736  1.00  0.00     0.041 A 
HETATM    6  C   UNL     1      11.692  -3.126 -21.490  1.00  0.00    -0.035 A 
HETATM    7  C   UNL     1      11.301  -3.212 -22.941  1.00  0.00     0.050 C 
HETATM    8  C   UNL     1      11.430  -1.884 -20.860  1.00  0.00     0.015 A 
ENDROOT
BRANCH   5   9
HETATM    9  N   UNL     1      12.605  -5.420 -21.344  1.00  0.00    -0.322 N 
HETATM   10  C   UNL     1      13.852  -5.777 -21.852  1.00  0.00     0.257 C 
HETATM   11  O   UNL     1      14.873  -5.104 -21.789  1.00  0.00    -0.267 OA
HETATM   12  HN  UNL     1      11.852  -6.084 -21.447  1.00  0.00     0.169 HD
BRANCH  10  13
HETATM   13  C   UNL     1      13.978  -7.123 -22.492  1.00  0.00     0.047 A 
HETATM   14  C   UNL     1      14.013  -8.242 -21.664  1.00  0.00     0.049 A 
HETATM   15  C   UNL     1      14.284  -9.472 -22.230  1.00  0.00     0.051 A 
HETATM   16  N   UNL     1      14.563  -9.621 -23.548  1.00  0.00    -0.354 N 
HETATM   17  C   UNL     1      14.544  -8.548 -24.370  1.00  0.00     0.050 A 
HETATM   18  HN  UNL     1      14.787 -10.544 -23.920  1.00  0.00     0.166 HD
HETATM   19  C   UNL     1      14.863  -8.710 -25.732  1.00  0.00    -0.033 A 
HETATM   20  C   UNL     1      14.222  -7.257 -23.893  1.00  0.00     0.008 A 
HETATM   21  C   UNL     1      15.259 -10.045 -26.312  1.00  0.00     0.050 C 
HETATM   22  C   UNL     1      14.843  -7.619 -26.622  1.00  0.00     0.028 A 
HETATM   23  C   UNL     1      14.489  -6.364 -26.165  1.00  0.00     0.012 A 
HETATM   24  C   UNL     1      14.173  -6.184 -24.823  1.00  0.00     0.034 A 
HETATM   25 BR   UNL     1      14.458  -4.897 -27.355  1.00  0.00    -0.051 Br
BRANCH  15  26
HETATM   26  C   UNL     1      14.347 -10.712 -21.442  1.00  0.00     0.031 A 
HETATM   27  C   UNL     1      15.122 -10.996 -20.330  1.00  0.00     0.021 A 
HETATM   28  C   UNL     1      14.900 -12.309 -19.817  1.00  0.00     0.008 A 
HETATM   29  C   UNL     1      13.980 -13.004 -20.568  1.00  0.00     0.050 A 
HETATM   30  S   UNL     1      13.396 -12.080 -21.878  1.00  0.00    -0.100 SA
ENDBRANCH  15  26
ENDBRANCH  10  13
ENDBRANCH   5   9
TORSDOF 3
ENDMDL
MODEL 8
REMARK VINA RESULT:      -7.2      5.659      7.724
REMARK  3 active torsions:
REMARK  status: ('A' for Active; 'I' for Inactive)
REMARK    1  A    between atoms: C_5  and  N_9 
REMARK       I    between atoms: N_9  and  C_10 
REMARK    2  A    between atoms: C_10  and  C_12 
REMARK    3  A    between atoms: C_14  and  C_15 
ROOT
HETATM    1  C   UNL     1      13.358  -4.686 -25.978  1.00  0.00     0.048 C 
HETATM    2  C   UNL     1      13.655  -5.005 -24.545  1.00  0.00    -0.061 A 
HETATM    3  C   UNL     1      13.347  -4.098 -23.541  1.00  0.00     0.009 A 
HETATM    4  C   UNL     1      13.664  -4.380 -22.210  1.00  0.00     0.030 A 
HETATM    5  C   UNL     1      14.305  -5.569 -21.829  1.00  0.00     0.041 A 
HETATM    6  C   UNL     1      14.587  -6.517 -22.839  1.00  0.00    -0.035 A 
HETATM    7  C   UNL     1      15.218  -7.865 -22.614  1.00  0.00     0.050 C 
HETATM    8  C   UNL     1      14.247  -6.219 -24.182  1.00  0.00     0.015 A 
ENDROOT
BRANCH   5   9
HETATM    9  N   UNL     1      14.688  -5.800 -20.474  1.00  0.00    -0.322 N 
HETATM   10  C   UNL     1      15.703  -5.144 -19.781  1.00  0.00     0.257 C 
HETATM   11  O   UNL     1      16.377  -4.214 -20.205  1.00  0.00    -0.267 OA
HETATM   12  HN  UNL     1      14.197  -6.537 -19.993  1.00  0.00     0.169 HD
BRANCH  10  13
HETATM   13  C   UNL     1      15.969  -5.575 -18.373  1.00  0.00     0.047 A 
HETATM   14  C   UNL     1      16.612  -6.793 -18.172  1.00  0.00     0.049 A 
HETATM   15  C   UNL     1      16.724  -7.273 -16.881  1.00  0.00     0.051 A 
HETATM   16  N   UNL     1      16.190  -6.627 -15.816  1.00  0.00    -0.354 N 
HETATM   17  C   UNL     1      15.553  -5.447 -15.989  1.00  0.00     0.050 A 
HETATM   18  HN  UNL     1      16.270  -7.031 -14.883  1.00  0.00     0.166 HD
HETATM   19  C   UNL     1      14.978  -4.799 -14.879  1.00  0.00    -0.033 A 
HETATM   20  C   UNL     1      15.437  -4.850 -17.264  1.00  0.00     0.008 A 
HETATM   21  C   UNL     1      15.019  -5.391 -13.492  1.00  0.00     0.050 C 
HETATM   22  C   UNL     1      14.315  -3.564 -15.016  1.00  0.00     0.028 A 
HETATM   23  C   UNL     1      14.237  -2.959 -16.256  1.00  0.00     0.012 A 
HETATM   24  C   UNL     1      14.798  -3.585 -17.363  1.00  0.00     0.034 A 
HETATM   25 BR   UNL     1      13.352  -1.300 -16.445  1.00  0.00    -0.051 Br
BRANCH  15  26
HETATM   26  C   UNL     1      17.382  -8.549 -16.563  1.00  0.00     0.031 A 
HETATM   27  C   UNL     1      17.980  -8.946 -15.379  1.00  0.00     0.021 A 
HETATM   28  C   UNL     1      18.503 -10.273 -15.436  1.00  0.00     0.008 A 
HETATM   29  C   UNL     1      18.314 -10.845 -16.673  1.00  0.00     0.050 A 
HETATM   30  S   UNL     1      17.518  -9.788 -17.751  1.00  0.00    -0.100 SA
ENDBRANCH  15  26
ENDBRANCH  10  13
ENDBRANCH   5   9
TORSDOF 3
ENDMDL
MODEL 9
REMARK VINA RESULT:      -7.2      5.225      8.138
REMARK  3 active torsions:
REMARK  status: ('A' for Active; 'I' for Inactive)
REMARK    1  A    between atoms: C_5  and  N_9 
REMARK       I    between atoms: N_9  and  C_10 
REMARK    2  A    between atoms: C_10  and  C_12 
REMARK    3  A    between atoms: C_14  and  C_15 
ROOT
HETATM    1  C   UNL     1      18.751 -10.685 -15.786  1.00  0.00     0.048 C 
HETATM    2  C   UNL     1      17.837  -9.695 -16.441  1.00  0.00    -0.061 A 
HETATM    3  C   UNL     1      17.423  -9.877 -17.753  1.00  0.00     0.009 A 
HETATM    4  C   UNL     1      16.605  -8.931 -18.375  1.00  0.00     0.030 A 
HETATM    5  C   UNL     1      16.175  -7.767 -17.719  1.00  0.00     0.041 A 
HETATM    6  C   UNL     1      16.559  -7.592 -16.371  1.00  0.00    -0.035 A 
HETATM    7  C   UNL     1      16.150  -6.438 -15.493  1.00  0.00     0.050 C 
HETATM    8  C   UNL     1      17.378  -8.568 -15.752  1.00  0.00     0.015 A 
ENDROOT
BRANCH   5   9
HETATM    9  N   UNL     1      15.404  -6.778 -18.401  1.00  0.00    -0.322 N 
HETATM   10  C   UNL     1      15.899  -5.774 -19.231  1.00  0.00     0.257 C 
HETATM   11  O   UNL     1      17.069  -5.629 -19.564  1.00  0.00    -0.267 OA
HETATM   12  HN  UNL     1      14.411  -6.791 -18.228  1.00  0.00     0.169 HD
BRANCH  10  13
HETATM   13  C   UNL     1      14.914  -4.809 -19.811  1.00  0.00     0.047 A 
HETATM   14  C   UNL     1      14.380  -3.834 -18.973  1.00  0.00     0.049 A 
HETATM   15  C   UNL     1      13.359  -3.039 -19.456  1.00  0.00     0.051 A 
HETATM   16  N   UNL     1      12.828  -3.206 -20.692  1.00  0.00    -0.354 N 
HETATM   17  C   UNL     1      13.324  -4.153 -21.519  1.00  0.00     0.050 A 
HETATM   18  HN  UNL     1      12.054  -2.617 -20.998  1.00  0.00     0.166 HD
HETATM   19  C   UNL     1      12.747  -4.336 -22.791  1.00  0.00    -0.033 A 
HETATM   20  C   UNL     1      14.406  -4.977 -21.135  1.00  0.00     0.008 A 
HETATM   21  C   UNL     1      11.562  -3.528 -23.260  1.00  0.00     0.050 C 
HETATM   22  C   UNL     1      13.242  -5.304 -23.685  1.00  0.00     0.028 A 
HETATM   23  C   UNL     1      14.326  -6.083 -23.327  1.00  0.00     0.012 A 
HETATM   24  C   UNL     1      14.908  -5.917 -22.075  1.00  0.00     0.034 A 
HETATM   25 BR   UNL     1      14.997  -7.381 -24.525  1.00  0.00    -0.051 Br
BRANCH  15  26
HETATM   26  C   UNL     1      12.726  -1.984 -18.649  1.00  0.00     0.031 A 
HETATM   27  C   UNL     1      11.688  -1.134 -18.993  1.00  0.00     0.021 A 
HETATM   28  C   UNL     1      11.326  -0.243 -17.938  1.00  0.00     0.008 A 
HETATM   29  C   UNL     1      12.115  -0.420 -16.824  1.00  0.00     0.050 A 
HETATM   30  S   UNL     1      13.281  -1.643 -17.055  1.00  0.00    -0.100 SA
ENDBRANCH  15  26
ENDBRANCH  10  13
ENDBRANCH   5   9
TORSDOF 3
ENDMDL
