MODEL 1
REMARK VINA RESULT:      -7.7      0.000      0.000
REMARK  7 active torsions:
REMARK  status: ('A' for Active; 'I' for Inactive)
REMARK    1  A    between atoms: C_2  and  C_3 
REMARK    2  A    between atoms: C_8  and  N_9 
REMARK       I    between atoms: N_9  and  C_10 
REMARK    3  A    between atoms: C_10  and  C_12 
REMARK    4  A    between atoms: C_12  and  N_13 
REMARK    5  A    between atoms: C_22  and  C_23 
REMARK    6  A    between atoms: C_28  and  S_30 
REMARK    7  A    between atoms: S_30  and  N_33 
ROOT
HETATM    1  C   UNL     1      18.633  -1.475 -21.099  1.00  0.00     0.010 C 
HETATM    2  C   UNL     1      18.451  -0.561 -19.893  1.00  0.00     0.036 C 
ENDROOT
BRANCH   2   3
HETATM    3  C   UNL     1      18.803   0.862 -20.258  1.00  0.00    -0.032 A 
HETATM    4  C   UNL     1      20.087   1.080 -20.804  1.00  0.00     0.009 A 
HETATM    5  C   UNL     1      20.566   2.365 -21.028  1.00  0.00     0.001 A 
HETATM    6  C   UNL     1      19.765   3.455 -20.721  1.00  0.00     0.002 A 
HETATM    7  C   UNL     1      18.483   3.257 -20.199  1.00  0.00     0.030 A 
HETATM    8  C   UNL     1      17.981   1.970 -19.949  1.00  0.00     0.041 A 
BRANCH   8   9
HETATM    9  N   UNL     1      16.686   1.772 -19.402  1.00  0.00    -0.325 N 
HETATM   10  C   UNL     1      16.358   1.762 -18.057  1.00  0.00     0.242 C 
HETATM   11  O   UNL     1      17.172   1.788 -17.134  1.00  0.00    -0.271 OA
HETATM   12  HN  UNL     1      15.930   1.515 -20.025  1.00  0.00     0.169 HD
BRANCH  10  13
HETATM   13  C   UNL     1      14.888   1.444 -17.761  1.00  0.00     0.255 C 
BRANCH  13  14
HETATM   14  N   UNL     1      14.560   0.025 -17.626  1.00  0.00    -0.248 N 
HETATM   15  C   UNL     1      14.474  -0.488 -16.342  1.00  0.00     0.269 A 
HETATM   16  O   UNL     1      14.546   0.199 -15.326  1.00  0.00    -0.266 OA
HETATM   17  C   UNL     1      14.324  -1.957 -16.229  1.00  0.00     0.020 A 
HETATM   18  C   UNL     1      14.217  -2.475 -14.814  1.00  0.00     0.045 C 
HETATM   19  C   UNL     1      14.302  -2.746 -17.320  1.00  0.00    -0.017 A 
HETATM   20  C   UNL     1      13.617  -3.874 -14.729  1.00  0.00     0.005 C 
HETATM   21  C   UNL     1      14.303  -4.785 -15.719  1.00  0.00     0.005 C 
HETATM   22  C   UNL     1      14.209  -4.242 -17.146  1.00  0.00     0.042 C 
HETATM   23  C   UNL     1      14.330  -2.035 -18.663  1.00  0.00     0.065 A 
HETATM   24  N   UNL     1      14.447  -0.736 -18.773  1.00  0.00    -0.294 N 
HETATM   25  HN  UNL     1      14.456  -0.293 -19.692  1.00  0.00     0.187 HD
BRANCH  23  26
HETATM   26  C   UNL     1      14.123  -2.812 -19.961  1.00  0.00    -0.006 C 
HETATM   27  C   UNL     1      15.235  -3.172 -20.733  1.00  0.00     0.014 C 
HETATM   28  C   UNL     1      15.086  -3.773 -21.998  1.00  0.00     0.009 C 
HETATM   29  C   UNL     1      13.817  -3.989 -22.561  1.00  0.00    -0.039 C 
HETATM   30  C   UNL     1      13.701  -4.588 -23.933  1.00  0.00     0.050 C 
HETATM   31  C   UNL     1      12.706  -3.649 -21.783  1.00  0.00     0.086 C 
HETATM   32  C   UNL     1      12.878  -3.175 -20.471  1.00  0.00     0.039 C 
BRANCH  31  33
HETATM   33  S   UNL     1      11.024  -3.739 -22.386  1.00  0.00     0.259 S 
HETATM   34  O   UNL     1      10.902  -2.852 -23.516  1.00  0.00    -0.201 OA
HETATM   35  O   UNL     1      10.644  -5.132 -22.469  1.00  0.00    -0.201 OA
BRANCH  33  36
HETATM   36  N   UNL     1      10.126  -3.059 -21.130  1.00  0.00    -0.320 N 
HETATM   37  C   UNL     1       8.730  -3.463 -20.964  1.00  0.00     0.159 C 
HETATM   38  HN  UNL     1      10.338  -2.067 -21.017  1.00  0.00     0.171 HD
ENDBRANCH  33  36
ENDBRANCH  31  33
ENDBRANCH  23  26
ENDBRANCH  13  14
ENDBRANCH  10  13
ENDBRANCH   8   9
ENDBRANCH   2   3
TORSDOF 7
ENDMDL
MODEL 2
REMARK VINA RESULT:      -7.6      3.987      7.203
REMARK  7 active torsions:
REMARK  status: ('A' for Active; 'I' for Inactive)
REMARK    1  A    between atoms: C_2  and  C_3 
REMARK    2  A    between atoms: C_8  and  N_9 
REMARK       I    between atoms: N_9  and  C_10 
REMARK    3  A    between atoms: C_10  and  C_12 
REMARK    4  A    between atoms: C_12  and  N_13 
REMARK    5  A    between atoms: C_22  and  C_23 
REMARK    6  A    between atoms: C_28  and  S_30 
REMARK    7  A    between atoms: S_30  and  N_33 
ROOT
HETATM    1  C   UNL     1      14.136  -4.122 -17.524  1.00  0.00     0.010 C 
HETATM    2  C   UNL     1      15.068  -4.703 -16.468  1.00  0.00     0.036 C 
ENDROOT
BRANCH   2   3
HETATM    3  C   UNL     1      14.486  -4.500 -15.089  1.00  0.00    -0.032 A 
HETATM    4  C   UNL     1      13.218  -5.071 -14.844  1.00  0.00     0.009 A 
HETATM    5  C   UNL     1      12.528  -4.813 -13.664  1.00  0.00     0.001 A 
HETATM    6  C   UNL     1      13.100  -3.989 -12.707  1.00  0.00     0.002 A 
HETATM    7  C   UNL     1      14.364  -3.432 -12.925  1.00  0.00     0.030 A 
HETATM    8  C   UNL     1      15.075  -3.665 -14.113  1.00  0.00     0.041 A 
BRANCH   8   9
HETATM    9  N   UNL     1      16.350  -3.083 -14.340  1.00  0.00    -0.325 N 
HETATM   10  C   UNL     1      16.596  -1.827 -14.868  1.00  0.00     0.242 C 
HETATM   11  O   UNL     1      15.737  -1.085 -15.346  1.00  0.00    -0.271 OA
HETATM   12  HN  UNL     1      17.175  -3.655 -14.203  1.00  0.00     0.169 HD
BRANCH  10  13
HETATM   13  C   UNL     1      18.079  -1.500 -15.073  1.00  0.00     0.255 C 
BRANCH  13  14
HETATM   14  N   UNL     1      18.638  -1.870 -16.373  1.00  0.00    -0.248 N 
HETATM   15  C   UNL     1      19.925  -1.446 -16.655  1.00  0.00     0.269 A 
HETATM   16  O   UNL     1      20.653  -0.882 -15.840  1.00  0.00    -0.266 OA
HETATM   17  C   UNL     1      20.404  -1.669 -18.039  1.00  0.00     0.020 A 
HETATM   18  C   UNL     1      21.818  -1.209 -18.302  1.00  0.00     0.045 C 
HETATM   19  C   UNL     1      19.613  -2.230 -18.972  1.00  0.00    -0.017 A 
HETATM   20  C   UNL     1      22.438  -1.843 -19.542  1.00  0.00     0.005 C 
HETATM   21  C   UNL     1      21.478  -1.735 -20.704  1.00  0.00     0.005 C 
HETATM   22  C   UNL     1      20.128  -2.379 -20.383  1.00  0.00     0.042 C 
HETATM   23  C   UNL     1      18.253  -2.713 -18.497  1.00  0.00     0.065 A 
HETATM   24  N   UNL     1      17.826  -2.533 -17.273  1.00  0.00    -0.294 N 
HETATM   25  HN  UNL     1      16.909  -2.877 -16.988  1.00  0.00     0.187 HD
BRANCH  23  26
HETATM   26  C   UNL     1      17.348  -3.527 -19.420  1.00  0.00    -0.006 C 
HETATM   27  C   UNL     1      16.491  -2.862 -20.306  1.00  0.00     0.014 C 
HETATM   28  C   UNL     1      15.548  -3.566 -21.081  1.00  0.00     0.009 C 
HETATM   29  C   UNL     1      15.392  -4.956 -20.959  1.00  0.00    -0.039 C 
HETATM   30  C   UNL     1      14.343  -5.664 -21.768  1.00  0.00     0.050 C 
HETATM   31  C   UNL     1      16.260  -5.624 -20.091  1.00  0.00     0.086 C 
HETATM   32  C   UNL     1      17.281  -4.919 -19.428  1.00  0.00     0.039 C 
BRANCH  31  33
HETATM   33  S   UNL     1      16.125  -7.368 -19.719  1.00  0.00     0.259 S 
HETATM   34  O   UNL     1      14.797  -7.620 -19.215  1.00  0.00    -0.201 OA
HETATM   35  O   UNL     1      16.669  -8.115 -20.831  1.00  0.00    -0.201 OA
BRANCH  33  36
HETATM   36  N   UNL     1      17.186  -7.573 -18.423  1.00  0.00    -0.320 N 
HETATM   37  C   UNL     1      16.725  -8.303 -17.244  1.00  0.00     0.159 C 
HETATM   38  HN  UNL     1      17.739  -6.731 -18.261  1.00  0.00     0.171 HD
ENDBRANCH  33  36
ENDBRANCH  31  33
ENDBRANCH  23  26
ENDBRANCH  13  14
ENDBRANCH  10  13
ENDBRANCH   8   9
ENDBRANCH   2   3
TORSDOF 7
ENDMDL
MODEL 3
REMARK VINA RESULT:      -7.6      1.079      1.194
REMARK  7 active torsions:
REMARK  status: ('A' for Active; 'I' for Inactive)
REMARK    1  A    between atoms: C_2  and  C_3 
REMARK    2  A    between atoms: C_8  and  N_9 
REMARK       I    between atoms: N_9  and  C_10 
REMARK    3  A    between atoms: C_10  and  C_12 
REMARK    4  A    between atoms: C_12  and  N_13 
REMARK    5  A    between atoms: C_22  and  C_23 
REMARK    6  A    between atoms: C_28  and  S_30 
REMARK    7  A    between atoms: S_30  and  N_33 
ROOT
HETATM    1  C   UNL     1      19.374  -1.097 -21.799  1.00  0.00     0.010 C 
HETATM    2  C   UNL     1      18.737  -0.201 -20.744  1.00  0.00     0.036 C 
ENDROOT
BRANCH   2   3
HETATM    3  C   UNL     1      19.414   1.149 -20.726  1.00  0.00    -0.032 A 
HETATM    4  C   UNL     1      20.720   1.213 -21.259  1.00  0.00     0.009 A 
HETATM    5  C   UNL     1      21.487   2.367 -21.151  1.00  0.00     0.001 A 
HETATM    6  C   UNL     1      20.956   3.481 -20.518  1.00  0.00     0.002 A 
HETATM    7  C   UNL     1      19.657   3.442 -20.002  1.00  0.00     0.030 A 
HETATM    8  C   UNL     1      18.867   2.284 -20.086  1.00  0.00     0.041 A 
BRANCH   8   9
HETATM    9  N   UNL     1      17.554   2.241 -19.545  1.00  0.00    -0.325 N 
HETATM   10  C   UNL     1      17.222   2.066 -18.213  1.00  0.00     0.242 C 
HETATM   11  O   UNL     1      18.022   1.784 -17.320  1.00  0.00    -0.271 OA
HETATM   12  HN  UNL     1      16.768   2.238 -20.183  1.00  0.00     0.169 HD
BRANCH  10  13
HETATM   13  C   UNL     1      15.717   1.981 -17.937  1.00  0.00     0.255 C 
BRANCH  13  14
HETATM   14  N   UNL     1      15.199   0.645 -17.641  1.00  0.00    -0.248 N 
HETATM   15  C   UNL     1      15.054   0.301 -16.308  1.00  0.00     0.269 A 
HETATM   16  O   UNL     1      15.226   1.085 -15.377  1.00  0.00    -0.266 OA
HETATM   17  C   UNL     1      14.706  -1.111 -16.027  1.00  0.00     0.020 A 
HETATM   18  C   UNL     1      14.539  -1.443 -14.563  1.00  0.00     0.045 C 
HETATM   19  C   UNL     1      14.568  -2.010 -17.020  1.00  0.00    -0.017 A 
HETATM   20  C   UNL     1      13.754  -2.728 -14.322  1.00  0.00     0.005 C 
HETATM   21  C   UNL     1      14.302  -3.832 -15.195  1.00  0.00     0.005 C 
HETATM   22  C   UNL     1      14.273  -3.449 -16.675  1.00  0.00     0.042 C 
HETATM   23  C   UNL     1      14.683  -1.469 -18.435  1.00  0.00     0.065 A 
HETATM   24  N   UNL     1      14.976  -0.220 -18.694  1.00  0.00    -0.294 N 
HETATM   25  HN  UNL     1      15.038   0.109 -19.658  1.00  0.00     0.187 HD
BRANCH  23  26
HETATM   26  C   UNL     1      14.362  -2.356 -19.637  1.00  0.00    -0.006 C 
HETATM   27  C   UNL     1      15.410  -2.878 -20.406  1.00  0.00     0.014 C 
HETATM   28  C   UNL     1      15.161  -3.591 -21.596  1.00  0.00     0.009 C 
HETATM   29  C   UNL     1      13.857  -3.762 -22.087  1.00  0.00    -0.039 C 
HETATM   30  C   UNL     1      13.636  -4.487 -23.384  1.00  0.00     0.050 C 
HETATM   31  C   UNL     1      12.809  -3.260 -21.310  1.00  0.00     0.086 C 
HETATM   32  C   UNL     1      13.073  -2.670 -20.062  1.00  0.00     0.039 C 
BRANCH  31  33
HETATM   33  S   UNL     1      11.101  -3.279 -21.839  1.00  0.00     0.259 S 
HETATM   34  O   UNL     1      10.312  -2.596 -20.843  1.00  0.00    -0.201 OA
HETATM   35  O   UNL     1      11.051  -2.905 -23.234  1.00  0.00    -0.201 OA
BRANCH  33  36
HETATM   36  N   UNL     1      10.686  -4.913 -21.753  1.00  0.00    -0.320 N 
HETATM   37  C   UNL     1      10.482  -5.519 -20.439  1.00  0.00     0.159 C 
HETATM   38  HN  UNL     1      11.199  -5.462 -22.443  1.00  0.00     0.171 HD
ENDBRANCH  33  36
ENDBRANCH  31  33
ENDBRANCH  23  26
ENDBRANCH  13  14
ENDBRANCH  10  13
ENDBRANCH   8   9
ENDBRANCH   2   3
TORSDOF 7
ENDMDL
MODEL 4
REMARK VINA RESULT:      -7.6      9.685     15.408
REMARK  7 active torsions:
REMARK  status: ('A' for Active; 'I' for Inactive)
REMARK    1  A    between atoms: C_2  and  C_3 
REMARK    2  A    between atoms: C_8  and  N_9 
REMARK       I    between atoms: N_9  and  C_10 
REMARK    3  A    between atoms: C_10  and  C_12 
REMARK    4  A    between atoms: C_12  and  N_13 
REMARK    5  A    between atoms: C_22  and  C_23 
REMARK    6  A    between atoms: C_28  and  S_30 
REMARK    7  A    between atoms: S_30  and  N_33 
ROOT
HETATM    1  C   UNL     1      15.632 -11.493 -27.257  1.00  0.00     0.010 C 
HETATM    2  C   UNL     1      14.533 -12.022 -28.170  1.00  0.00     0.036 C 
ENDROOT
BRANCH   2   3
HETATM    3  C   UNL     1      14.745 -13.492 -28.447  1.00  0.00    -0.032 A 
HETATM    4  C   UNL     1      14.827 -14.345 -27.324  1.00  0.00     0.009 A 
HETATM    5  C   UNL     1      15.174 -15.684 -27.461  1.00  0.00     0.001 A 
HETATM    6  C   UNL     1      15.434 -16.195 -28.723  1.00  0.00     0.002 A 
HETATM    7  C   UNL     1      15.339 -15.370 -29.847  1.00  0.00     0.030 A 
HETATM    8  C   UNL     1      15.005 -14.011 -29.735  1.00  0.00     0.041 A 
BRANCH   8   9
HETATM    9  N   UNL     1      14.926 -13.169 -30.877  1.00  0.00    -0.325 N 
HETATM   10  C   UNL     1      15.975 -12.480 -31.461  1.00  0.00     0.242 C 
HETATM   11  O   UNL     1      17.107 -12.390 -30.987  1.00  0.00    -0.271 OA
HETATM   12  HN  UNL     1      14.013 -12.960 -31.262  1.00  0.00     0.169 HD
BRANCH  10  13
HETATM   13  C   UNL     1      15.573 -11.585 -32.638  1.00  0.00     0.255 C 
BRANCH  13  14
HETATM   14  N   UNL     1      15.648 -10.144 -32.396  1.00  0.00    -0.248 N 
HETATM   15  C   UNL     1      15.841  -9.325 -33.495  1.00  0.00     0.269 A 
HETATM   16  O   UNL     1      15.841  -9.727 -34.656  1.00  0.00    -0.266 OA
HETATM   17  C   UNL     1      16.099  -7.893 -33.212  1.00  0.00     0.020 A 
HETATM   18  C   UNL     1      16.288  -7.030 -34.437  1.00  0.00     0.045 C 
HETATM   19  C   UNL     1      16.166  -7.430 -31.951  1.00  0.00    -0.017 A 
HETATM   20  C   UNL     1      16.091  -5.543 -34.162  1.00  0.00     0.005 C 
HETATM   21  C   UNL     1      16.881  -5.142 -32.938  1.00  0.00     0.005 C 
HETATM   22  C   UNL     1      16.490  -5.975 -31.717  1.00  0.00     0.042 C 
HETATM   23  C   UNL     1      15.857  -8.431 -30.850  1.00  0.00     0.065 A 
HETATM   24  N   UNL     1      15.615  -9.695 -31.091  1.00  0.00    -0.294 N 
HETATM   25  HN  UNL     1      15.406 -10.337 -30.326  1.00  0.00     0.187 HD
BRANCH  23  26
HETATM   26  C   UNL     1      15.722  -7.977 -29.398  1.00  0.00    -0.006 C 
HETATM   27  C   UNL     1      16.759  -8.242 -28.494  1.00  0.00     0.014 C 
HETATM   28  C   UNL     1      16.624  -7.960 -27.120  1.00  0.00     0.009 C 
HETATM   29  C   UNL     1      15.427  -7.449 -26.592  1.00  0.00    -0.039 C 
HETATM   30  C   UNL     1      15.306  -7.206 -25.115  1.00  0.00     0.050 C 
HETATM   31  C   UNL     1      14.399  -7.164 -27.496  1.00  0.00     0.086 C 
HETATM   32  C   UNL     1      14.604  -7.330 -28.877  1.00  0.00     0.039 C 
BRANCH  31  33
HETATM   33  S   UNL     1      12.770  -6.628 -26.989  1.00  0.00     0.259 S 
HETATM   34  O   UNL     1      12.147  -7.705 -26.259  1.00  0.00    -0.201 OA
HETATM   35  O   UNL     1      12.879  -5.298 -26.434  1.00  0.00    -0.201 OA
BRANCH  33  36
HETATM   36  N   UNL     1      11.937  -6.484 -28.450  1.00  0.00    -0.320 N 
HETATM   37  C   UNL     1      10.764  -7.326 -28.678  1.00  0.00     0.159 C 
HETATM   38  HN  UNL     1      12.580  -6.361 -29.232  1.00  0.00     0.171 HD
ENDBRANCH  33  36
ENDBRANCH  31  33
ENDBRANCH  23  26
ENDBRANCH  13  14
ENDBRANCH  10  13
ENDBRANCH   8   9
ENDBRANCH   2   3
TORSDOF 7
ENDMDL
MODEL 5
REMARK VINA RESULT:      -7.6      2.754      3.775
REMARK  7 active torsions:
REMARK  status: ('A' for Active; 'I' for Inactive)
REMARK    1  A    between atoms: C_2  and  C_3 
REMARK    2  A    between atoms: C_8  and  N_9 
REMARK       I    between atoms: N_9  and  C_10 
REMARK    3  A    between atoms: C_10  and  C_12 
REMARK    4  A    between atoms: C_12  and  N_13 
REMARK    5  A    between atoms: C_22  and  C_23 
REMARK    6  A    between atoms: C_28  and  S_30 
REMARK    7  A    between atoms: S_30  and  N_33 
ROOT
HETATM    1  C   UNL     1      19.031   0.775 -21.626  1.00  0.00     0.010 C 
HETATM    2  C   UNL     1      19.062  -0.739 -21.791  1.00  0.00     0.036 C 
ENDROOT
BRANCH   2   3
HETATM    3  C   UNL     1      20.424  -1.278 -21.421  1.00  0.00    -0.032 A 
HETATM    4  C   UNL     1      21.344  -1.458 -22.476  1.00  0.00     0.009 A 
HETATM    5  C   UNL     1      22.565  -2.090 -22.268  1.00  0.00     0.001 A 
HETATM    6  C   UNL     1      22.889  -2.543 -20.998  1.00  0.00     0.002 A 
HETATM    7  C   UNL     1      21.998  -2.356 -19.937  1.00  0.00     0.030 A 
HETATM    8  C   UNL     1      20.753  -1.733 -20.124  1.00  0.00     0.041 A 
BRANCH   8   9
HETATM    9  N   UNL     1      19.841  -1.560 -19.049  1.00  0.00    -0.325 N 
HETATM   10  C   UNL     1      18.877  -2.465 -18.639  1.00  0.00     0.242 C 
HETATM   11  O   UNL     1      18.580  -3.497 -19.240  1.00  0.00    -0.271 OA
HETATM   12  HN  UNL     1      19.806  -0.661 -18.584  1.00  0.00     0.169 HD
BRANCH  10  13
HETATM   13  C   UNL     1      17.982  -1.969 -17.498  1.00  0.00     0.255 C 
BRANCH  13  14
HETATM   14  N   UNL     1      16.660  -2.589 -17.411  1.00  0.00    -0.248 N 
HETATM   15  C   UNL     1      16.339  -3.238 -16.230  1.00  0.00     0.269 A 
HETATM   16  O   UNL     1      17.050  -3.224 -15.228  1.00  0.00    -0.266 OA
HETATM   17  C   UNL     1      15.077  -4.014 -16.228  1.00  0.00     0.020 A 
HETATM   18  C   UNL     1      14.754  -4.693 -14.917  1.00  0.00     0.045 C 
HETATM   19  C   UNL     1      14.305  -4.099 -17.326  1.00  0.00    -0.017 A 
HETATM   20  C   UNL     1      13.286  -5.081 -14.786  1.00  0.00     0.005 C 
HETATM   21  C   UNL     1      12.835  -5.800 -16.036  1.00  0.00     0.005 C 
HETATM   22  C   UNL     1      13.061  -4.952 -17.288  1.00  0.00     0.042 C 
HETATM   23  C   UNL     1      14.746  -3.273 -18.523  1.00  0.00     0.065 A 
HETATM   24  N   UNL     1      15.852  -2.573 -18.530  1.00  0.00    -0.294 N 
HETATM   25  HN  UNL     1      16.113  -2.025 -19.350  1.00  0.00     0.187 HD
BRANCH  23  26
HETATM   26  C   UNL     1      13.853  -3.147 -19.755  1.00  0.00    -0.006 C 
HETATM   27  C   UNL     1      12.748  -2.288 -19.720  1.00  0.00     0.014 C 
HETATM   28  C   UNL     1      11.824  -2.238 -20.783  1.00  0.00     0.009 C 
HETATM   29  C   UNL     1      11.943  -3.084 -21.897  1.00  0.00    -0.039 C 
HETATM   30  C   UNL     1      10.911  -3.034 -22.987  1.00  0.00     0.050 C 
HETATM   31  C   UNL     1      13.057  -3.927 -21.944  1.00  0.00     0.086 C 
HETATM   32  C   UNL     1      14.036  -3.865 -20.936  1.00  0.00     0.039 C 
BRANCH  31  33
HETATM   33  S   UNL     1      13.304  -5.154 -23.221  1.00  0.00     0.259 S 
HETATM   34  O   UNL     1      12.170  -6.045 -23.217  1.00  0.00    -0.201 OA
HETATM   35  O   UNL     1      13.735  -4.479 -24.425  1.00  0.00    -0.201 OA
BRANCH  33  36
HETATM   36  N   UNL     1      14.624  -6.042 -22.656  1.00  0.00    -0.320 N 
HETATM   37  C   UNL     1      15.056  -7.217 -23.411  1.00  0.00     0.159 C 
HETATM   38  HN  UNL     1      14.608  -6.123 -21.640  1.00  0.00     0.171 HD
ENDBRANCH  33  36
ENDBRANCH  31  33
ENDBRANCH  23  26
ENDBRANCH  13  14
ENDBRANCH  10  13
ENDBRANCH   8   9
ENDBRANCH   2   3
TORSDOF 7
ENDMDL
MODEL 6
REMARK VINA RESULT:      -7.5      4.199      6.747
REMARK  7 active torsions:
REMARK  status: ('A' for Active; 'I' for Inactive)
REMARK    1  A    between atoms: C_2  and  C_3 
REMARK    2  A    between atoms: C_8  and  N_9 
REMARK       I    between atoms: N_9  and  C_10 
REMARK    3  A    between atoms: C_10  and  C_12 
REMARK    4  A    between atoms: C_12  and  N_13 
REMARK    5  A    between atoms: C_22  and  C_23 
REMARK    6  A    between atoms: C_28  and  S_30 
REMARK    7  A    between atoms: S_30  and  N_33 
ROOT
HETATM    1  C   UNL     1      15.872  -8.842 -19.772  1.00  0.00     0.010 C 
HETATM    2  C   UNL     1      15.583  -8.407 -18.341  1.00  0.00     0.036 C 
ENDROOT
BRANCH   2   3
HETATM    3  C   UNL     1      16.674  -8.893 -17.416  1.00  0.00    -0.032 A 
HETATM    4  C   UNL     1      17.351 -10.073 -17.796  1.00  0.00     0.009 A 
HETATM    5  C   UNL     1      18.261 -10.688 -16.944  1.00  0.00     0.001 A 
HETATM    6  C   UNL     1      18.517 -10.126 -15.702  1.00  0.00     0.002 A 
HETATM    7  C   UNL     1      17.871  -8.948 -15.318  1.00  0.00     0.030 A 
HETATM    8  C   UNL     1      16.937  -8.315 -16.154  1.00  0.00     0.041 A 
BRANCH   8   9
HETATM    9  N   UNL     1      16.268  -7.127 -15.754  1.00  0.00    -0.325 N 
HETATM   10  C   UNL     1      16.704  -5.831 -15.967  1.00  0.00     0.242 C 
HETATM   11  O   UNL     1      17.809  -5.525 -16.416  1.00  0.00    -0.271 OA
HETATM   12  HN  UNL     1      15.443  -7.208 -15.173  1.00  0.00     0.169 HD
BRANCH  10  13
HETATM   13  C   UNL     1      15.811  -4.749 -15.351  1.00  0.00     0.255 C 
BRANCH  13  14
HETATM   14  N   UNL     1      15.039  -3.946 -16.300  1.00  0.00    -0.248 N 
HETATM   15  C   UNL     1      14.352  -2.854 -15.796  1.00  0.00     0.269 A 
HETATM   16  O   UNL     1      14.446  -2.465 -14.634  1.00  0.00    -0.266 OA
HETATM   17  C   UNL     1      13.433  -2.166 -16.732  1.00  0.00     0.020 A 
HETATM   18  C   UNL     1      12.715  -0.971 -16.150  1.00  0.00     0.045 C 
HETATM   19  C   UNL     1      13.261  -2.602 -17.993  1.00  0.00    -0.017 A 
HETATM   20  C   UNL     1      12.155  -0.029 -17.210  1.00  0.00     0.005 C 
HETATM   21  C   UNL     1      11.393  -0.822 -18.246  1.00  0.00     0.005 C 
HETATM   22  C   UNL     1      12.267  -1.901 -18.886  1.00  0.00     0.042 C 
HETATM   23  C   UNL     1      14.139  -3.764 -18.427  1.00  0.00     0.065 A 
HETATM   24  N   UNL     1      14.964  -4.370 -17.611  1.00  0.00    -0.294 N 
HETATM   25  HN  UNL     1      15.543  -5.143 -17.940  1.00  0.00     0.187 HD
BRANCH  23  26
HETATM   26  C   UNL     1      14.164  -4.221 -19.884  1.00  0.00    -0.006 C 
HETATM   27  C   UNL     1      14.685  -3.368 -20.865  1.00  0.00     0.014 C 
HETATM   28  C   UNL     1      14.610  -3.691 -22.234  1.00  0.00     0.009 C 
HETATM   29  C   UNL     1      13.963  -4.856 -22.676  1.00  0.00    -0.039 C 
HETATM   30  C   UNL     1      13.861  -5.143 -24.147  1.00  0.00     0.050 C 
HETATM   31  C   UNL     1      13.460  -5.719 -21.698  1.00  0.00     0.086 C 
HETATM   32  C   UNL     1      13.664  -5.441 -20.335  1.00  0.00     0.039 C 
BRANCH  31  33
HETATM   33  S   UNL     1      12.501  -7.180 -22.079  1.00  0.00     0.259 S 
HETATM   34  O   UNL     1      11.290  -6.765 -22.744  1.00  0.00    -0.201 OA
HETATM   35  O   UNL     1      13.384  -8.167 -22.658  1.00  0.00    -0.201 OA
BRANCH  33  36
HETATM   36  N   UNL     1      12.050  -7.756 -20.558  1.00  0.00    -0.320 N 
HETATM   37  C   UNL     1      12.165  -9.188 -20.286  1.00  0.00     0.159 C 
HETATM   38  HN  UNL     1      11.212  -7.285 -20.216  1.00  0.00     0.171 HD
ENDBRANCH  33  36
ENDBRANCH  31  33
ENDBRANCH  23  26
ENDBRANCH  13  14
ENDBRANCH  10  13
ENDBRANCH   8   9
ENDBRANCH   2   3
TORSDOF 7
ENDMDL
MODEL 7
REMARK VINA RESULT:      -7.5      2.967      6.758
REMARK  7 active torsions:
REMARK  status: ('A' for Active; 'I' for Inactive)
REMARK    1  A    between atoms: C_2  and  C_3 
REMARK    2  A    between atoms: C_8  and  N_9 
REMARK       I    between atoms: N_9  and  C_10 
REMARK    3  A    between atoms: C_10  and  C_12 
REMARK    4  A    between atoms: C_12  and  N_13 
REMARK    5  A    between atoms: C_22  and  C_23 
REMARK    6  A    between atoms: C_28  and  S_30 
REMARK    7  A    between atoms: S_30  and  N_33 
ROOT
HETATM    1  C   UNL     1      13.131  -5.554 -17.768  1.00  0.00     0.010 C 
HETATM    2  C   UNL     1      13.836  -4.262 -17.373  1.00  0.00     0.036 C 
ENDROOT
BRANCH   2   3
HETATM    3  C   UNL     1      13.780  -4.072 -15.875  1.00  0.00    -0.032 A 
HETATM    4  C   UNL     1      13.305  -5.162 -15.114  1.00  0.00     0.009 A 
HETATM    5  C   UNL     1      13.069  -5.038 -13.749  1.00  0.00     0.001 A 
HETATM    6  C   UNL     1      13.314  -3.826 -13.122  1.00  0.00     0.002 A 
HETATM    7  C   UNL     1      13.804  -2.743 -13.857  1.00  0.00     0.030 A 
HETATM    8  C   UNL     1      14.038  -2.837 -15.239  1.00  0.00     0.041 A 
BRANCH   8   9
HETATM    9  N   UNL     1      14.518  -1.730 -15.987  1.00  0.00    -0.325 N 
HETATM   10  C   UNL     1      13.756  -0.693 -16.497  1.00  0.00     0.242 C 
HETATM   11  O   UNL     1      12.526  -0.655 -16.491  1.00  0.00    -0.271 OA
HETATM   12  HN  UNL     1      15.490  -1.723 -16.272  1.00  0.00     0.169 HD
BRANCH  10  13
HETATM   13  C   UNL     1      14.541   0.323 -17.334  1.00  0.00     0.255 C 
BRANCH  13  14
HETATM   14  N   UNL     1      15.605  -0.229 -18.171  1.00  0.00    -0.248 N 
HETATM   15  C   UNL     1      16.732   0.552 -18.364  1.00  0.00     0.269 A 
HETATM   16  O   UNL     1      16.930   1.619 -17.788  1.00  0.00    -0.266 OA
HETATM   17  C   UNL     1      17.713   0.059 -19.359  1.00  0.00     0.020 A 
HETATM   18  C   UNL     1      18.935   0.930 -19.528  1.00  0.00     0.045 C 
HETATM   19  C   UNL     1      17.499  -1.075 -20.051  1.00  0.00    -0.017 A 
HETATM   20  C   UNL     1      20.107   0.203 -20.178  1.00  0.00     0.005 C 
HETATM   21  C   UNL     1      19.634  -0.525 -21.415  1.00  0.00     0.005 C 
HETATM   22  C   UNL     1      18.501  -1.501 -21.096  1.00  0.00     0.042 C 
HETATM   23  C   UNL     1      16.256  -1.865 -19.678  1.00  0.00     0.065 A 
HETATM   24  N   UNL     1      15.390  -1.445 -18.791  1.00  0.00    -0.294 N 
HETATM   25  HN  UNL     1      14.569  -2.006 -18.561  1.00  0.00     0.187 HD
BRANCH  23  26
HETATM   26  C   UNL     1      16.009  -3.254 -20.264  1.00  0.00    -0.006 C 
HETATM   27  C   UNL     1      15.095  -3.405 -21.315  1.00  0.00     0.014 C 
HETATM   28  C   UNL     1      14.739  -4.680 -21.799  1.00  0.00     0.009 C 
HETATM   29  C   UNL     1      15.244  -5.852 -21.214  1.00  0.00    -0.039 C 
HETATM   30  C   UNL     1      14.803  -7.193 -21.727  1.00  0.00     0.050 C 
HETATM   31  C   UNL     1      16.172  -5.703 -20.179  1.00  0.00     0.086 C 
HETATM   32  C   UNL     1      16.613  -4.422 -19.802  1.00  0.00     0.039 C 
BRANCH  31  33
HETATM   33  S   UNL     1      16.823  -7.079 -19.240  1.00  0.00     0.259 S 
HETATM   34  O   UNL     1      15.711  -7.827 -18.707  1.00  0.00    -0.201 OA
HETATM   35  O   UNL     1      17.860  -7.714 -20.021  1.00  0.00    -0.201 OA
BRANCH  33  36
HETATM   36  N   UNL     1      17.581  -6.331 -17.931  1.00  0.00    -0.320 N 
HETATM   37  C   UNL     1      16.930  -6.374 -16.623  1.00  0.00     0.159 C 
HETATM   38  HN  UNL     1      18.012  -5.448 -18.207  1.00  0.00     0.171 HD
ENDBRANCH  33  36
ENDBRANCH  31  33
ENDBRANCH  23  26
ENDBRANCH  13  14
ENDBRANCH  10  13
ENDBRANCH   8   9
ENDBRANCH   2   3
TORSDOF 7
ENDMDL
MODEL 8
REMARK VINA RESULT:      -7.5      3.546      8.392
REMARK  7 active torsions:
REMARK  status: ('A' for Active; 'I' for Inactive)
REMARK    1  A    between atoms: C_2  and  C_3 
REMARK    2  A    between atoms: C_8  and  N_9 
REMARK       I    between atoms: N_9  and  C_10 
REMARK    3  A    between atoms: C_10  and  C_12 
REMARK    4  A    between atoms: C_12  and  N_13 
REMARK    5  A    between atoms: C_22  and  C_23 
REMARK    6  A    between atoms: C_28  and  S_30 
REMARK    7  A    between atoms: S_30  and  N_33 
ROOT
HETATM    1  C   UNL     1       9.801  -3.253 -20.566  1.00  0.00     0.010 C 
HETATM    2  C   UNL     1      11.165  -2.627 -20.307  1.00  0.00     0.036 C 
ENDROOT
BRANCH   2   3
HETATM    3  C   UNL     1      12.170  -3.126 -21.319  1.00  0.00    -0.032 A 
HETATM    4  C   UNL     1      11.656  -3.827 -22.433  1.00  0.00     0.009 A 
HETATM    5  C   UNL     1      12.501  -4.459 -23.338  1.00  0.00     0.001 A 
HETATM    6  C   UNL     1      13.873  -4.392 -23.151  1.00  0.00     0.002 A 
HETATM    7  C   UNL     1      14.399  -3.685 -22.066  1.00  0.00     0.030 A 
HETATM    8  C   UNL     1      13.568  -3.050 -21.129  1.00  0.00     0.041 A 
BRANCH   8   9
HETATM    9  N   UNL     1      14.104  -2.348 -20.017  1.00  0.00    -0.325 N 
HETATM   10  C   UNL     1      14.698  -2.912 -18.901  1.00  0.00     0.242 C 
HETATM   11  O   UNL     1      14.723  -4.118 -18.651  1.00  0.00    -0.271 OA
HETATM   12  HN  UNL     1      13.966  -1.346 -19.964  1.00  0.00     0.169 HD
BRANCH  10  13
HETATM   13  C   UNL     1      15.112  -1.906 -17.822  1.00  0.00     0.255 C 
BRANCH  13  14
HETATM   14  N   UNL     1      15.866  -0.744 -18.291  1.00  0.00    -0.248 N 
HETATM   15  C   UNL     1      15.319   0.506 -18.053  1.00  0.00     0.269 A 
HETATM   16  O   UNL     1      14.308   0.692 -17.380  1.00  0.00    -0.266 OA
HETATM   17  C   UNL     1      15.999   1.655 -18.695  1.00  0.00     0.020 A 
HETATM   18  C   UNL     1      15.383   3.002 -18.397  1.00  0.00     0.045 C 
HETATM   19  C   UNL     1      17.073   1.481 -19.487  1.00  0.00    -0.017 A 
HETATM   20  C   UNL     1      16.327   4.168 -18.666  1.00  0.00     0.005 C 
HETATM   21  C   UNL     1      16.956   4.013 -20.031  1.00  0.00     0.005 C 
HETATM   22  C   UNL     1      17.691   2.679 -20.165  1.00  0.00     0.042 C 
HETATM   23  C   UNL     1      17.605   0.061 -19.594  1.00  0.00     0.065 A 
HETATM   24  N   UNL     1      17.019  -0.959 -19.020  1.00  0.00    -0.294 N 
HETATM   25  HN  UNL     1      17.409  -1.898 -19.109  1.00  0.00     0.187 HD
BRANCH  23  26
HETATM   26  C   UNL     1      18.921  -0.226 -20.313  1.00  0.00    -0.006 C 
HETATM   27  C   UNL     1      18.897  -0.761 -21.607  1.00  0.00     0.014 C 
HETATM   28  C   UNL     1      20.081  -1.163 -22.257  1.00  0.00     0.009 C 
HETATM   29  C   UNL     1      21.328  -1.093 -21.614  1.00  0.00    -0.039 C 
HETATM   30  C   UNL     1      22.562  -1.576 -22.322  1.00  0.00     0.050 C 
HETATM   31  C   UNL     1      21.357  -0.541 -20.331  1.00  0.00     0.086 C 
HETATM   32  C   UNL     1      20.182  -0.025 -19.755  1.00  0.00     0.039 C 
BRANCH  31  33
HETATM   33  S   UNL     1      22.831  -0.487 -19.319  1.00  0.00     0.259 S 
HETATM   34  O   UNL     1      23.257  -1.843 -19.071  1.00  0.00    -0.201 OA
HETATM   35  O   UNL     1      23.728   0.501 -19.873  1.00  0.00    -0.201 OA
BRANCH  33  36
HETATM   36  N   UNL     1      22.272   0.125 -17.849  1.00  0.00    -0.320 N 
HETATM   37  C   UNL     1      23.183   0.154 -16.707  1.00  0.00     0.159 C 
HETATM   38  HN  UNL     1      21.310  -0.164 -17.669  1.00  0.00     0.171 HD
ENDBRANCH  33  36
ENDBRANCH  31  33
ENDBRANCH  23  26
ENDBRANCH  13  14
ENDBRANCH  10  13
ENDBRANCH   8   9
ENDBRANCH   2   3
TORSDOF 7
ENDMDL
MODEL 9
REMARK VINA RESULT:      -7.4      3.505      6.656
REMARK  7 active torsions:
REMARK  status: ('A' for Active; 'I' for Inactive)
REMARK    1  A    between atoms: C_2  and  C_3 
REMARK    2  A    between atoms: C_8  and  N_9 
REMARK       I    between atoms: N_9  and  C_10 
REMARK    3  A    between atoms: C_10  and  C_12 
REMARK    4  A    between atoms: C_12  and  N_13 
REMARK    5  A    between atoms: C_22  and  C_23 
REMARK    6  A    between atoms: C_28  and  S_30 
REMARK    7  A    between atoms: S_30  and  N_33 
ROOT
HETATM    1  C   UNL     1      14.060  -1.766 -14.444  1.00  0.00     0.010 C 
HETATM    2  C   UNL     1      13.539  -1.377 -15.822  1.00  0.00     0.036 C 
ENDROOT
BRANCH   2   3
HETATM    3  C   UNL     1      14.331  -0.214 -16.371  1.00  0.00    -0.032 A 
HETATM    4  C   UNL     1      15.173   0.467 -15.465  1.00  0.00     0.009 A 
HETATM    5  C   UNL     1      15.823   1.640 -15.828  1.00  0.00     0.001 A 
HETATM    6  C   UNL     1      15.651   2.147 -17.108  1.00  0.00     0.002 A 
HETATM    7  C   UNL     1      14.837   1.474 -18.024  1.00  0.00     0.030 A 
HETATM    8  C   UNL     1      14.158   0.295 -17.678  1.00  0.00     0.041 A 
BRANCH   8   9
HETATM    9  N   UNL     1      13.317  -0.376 -18.605  1.00  0.00    -0.325 N 
HETATM   10  C   UNL     1      11.936  -0.295 -18.666  1.00  0.00     0.242 C 
HETATM   11  O   UNL     1      11.227   0.268 -17.833  1.00  0.00    -0.271 OA
HETATM   12  HN  UNL     1      13.731  -1.059 -19.228  1.00  0.00     0.169 HD
BRANCH  10  13
HETATM   13  C   UNL     1      11.291  -1.197 -19.724  1.00  0.00     0.255 C 
BRANCH  13  14
HETATM   14  N   UNL     1      11.486  -2.635 -19.539  1.00  0.00    -0.248 N 
HETATM   15  C   UNL     1      10.735  -3.485 -20.333  1.00  0.00     0.269 A 
HETATM   16  O   UNL     1      10.010  -3.103 -21.248  1.00  0.00    -0.266 OA
HETATM   17  C   UNL     1      10.808  -4.928 -20.005  1.00  0.00     0.020 A 
HETATM   18  C   UNL     1       9.989  -5.824 -20.904  1.00  0.00     0.045 C 
HETATM   19  C   UNL     1      11.546  -5.375 -18.972  1.00  0.00    -0.017 A 
HETATM   20  C   UNL     1      10.423  -7.285 -20.856  1.00  0.00     0.005 C 
HETATM   21  C   UNL     1      10.558  -7.730 -19.419  1.00  0.00     0.005 C 
HETATM   22  C   UNL     1      11.537  -6.848 -18.643  1.00  0.00     0.042 C 
HETATM   23  C   UNL     1      12.375  -4.334 -18.239  1.00  0.00     0.065 A 
HETATM   24  N   UNL     1      12.328  -3.059 -18.530  1.00  0.00    -0.294 N 
HETATM   25  HN  UNL     1      12.905  -2.389 -18.020  1.00  0.00     0.187 HD
BRANCH  23  26
HETATM   26  C   UNL     1      13.387  -4.752 -17.174  1.00  0.00    -0.006 C 
HETATM   27  C   UNL     1      12.939  -5.393 -16.012  1.00  0.00     0.014 C 
HETATM   28  C   UNL     1      13.817  -5.679 -14.948  1.00  0.00     0.009 C 
HETATM   29  C   UNL     1      15.165  -5.287 -14.985  1.00  0.00    -0.039 C 
HETATM   30  C   UNL     1      16.058  -5.567 -13.810  1.00  0.00     0.050 C 
HETATM   31  C   UNL     1      15.619  -4.666 -16.152  1.00  0.00     0.086 C 
HETATM   32  C   UNL     1      14.757  -4.510 -17.253  1.00  0.00     0.039 C 
BRANCH  31  33
HETATM   33  S   UNL     1      17.266  -3.991 -16.327  1.00  0.00     0.259 S 
HETATM   34  O   UNL     1      17.414  -2.912 -15.382  1.00  0.00    -0.201 OA
HETATM   35  O   UNL     1      18.205  -5.089 -16.378  1.00  0.00    -0.201 OA
BRANCH  33  36
HETATM   36  N   UNL     1      17.239  -3.295 -17.864  1.00  0.00    -0.320 N 
HETATM   37  C   UNL     1      17.271  -1.837 -17.977  1.00  0.00     0.159 C 
HETATM   38  HN  UNL     1      16.605  -3.795 -18.487  1.00  0.00     0.171 HD
ENDBRANCH  33  36
ENDBRANCH  31  33
ENDBRANCH  23  26
ENDBRANCH  13  14
ENDBRANCH  10  13
ENDBRANCH   8   9
ENDBRANCH   2   3
TORSDOF 7
ENDMDL
