MODEL 1
REMARK VINA RESULT:      -7.5      0.000      0.000
REMARK  6 active torsions:
REMARK  status: ('A' for Active; 'I' for Inactive)
REMARK    1  A    between atoms: C_5  and  C_8 
REMARK    2  A    between atoms: C_8  and  N_9 
REMARK       I    between atoms: N_9  and  C_10 
REMARK    3  A    between atoms: N_9  and  C_13 
REMARK    4  A    between atoms: N_16  and  C_17 
REMARK    5  A    between atoms: C_17  and  C_18 
REMARK       I    between atoms: C_18  and  N_20 
REMARK    6  A    between atoms: N_20  and  C_21 
ROOT
HETATM    1  C   UNL     1      12.807  -4.079 -23.800  1.00  0.00     0.048 C 
HETATM    2  C   UNL     1      13.668  -4.733 -22.760  1.00  0.00    -0.062 A 
HETATM    3  C   UNL     1      14.379  -3.955 -21.843  1.00  0.00     0.007 A 
HETATM    4  C   UNL     1      15.376  -4.534 -21.056  1.00  0.00     0.009 A 
HETATM    5  C   UNL     1      15.680  -5.902 -21.166  1.00  0.00    -0.040 A 
HETATM    6  C   UNL     1      14.886  -6.696 -22.002  1.00  0.00     0.009 A 
HETATM    7  C   UNL     1      13.893  -6.115 -22.796  1.00  0.00     0.007 A 
ENDROOT
BRANCH   5   8
HETATM    8  C   UNL     1      16.958  -6.428 -20.532  1.00  0.00     0.172 C 
BRANCH   8   9
HETATM    9  N   UNL     1      16.824  -6.966 -19.173  1.00  0.00    -0.295 N 
HETATM   10  C   UNL     1      16.757  -8.363 -19.084  1.00  0.00     0.221 C 
HETATM   11  O   UNL     1      16.634  -9.085 -20.079  1.00  0.00    -0.273 OA
HETATM   12  C   UNL     1      16.907  -9.043 -17.740  1.00  0.00     0.117 C 
BRANCH   9  13
HETATM   13  C   UNL     1      16.813  -6.100 -18.073  1.00  0.00     0.180 C 
HETATM   14  C   UNL     1      15.447  -5.650 -17.514  1.00  0.00     0.293 C 
HETATM   15  O   UNL     1      14.440  -6.336 -17.581  1.00  0.00    -0.264 OA
HETATM   16  N   UNL     1      15.439  -4.355 -17.000  1.00  0.00    -0.300 N 
HETATM   17  C   UNL     1      16.617  -3.977 -16.278  1.00  0.00     0.065 A 
HETATM   18  C   UNL     1      16.615  -3.022 -15.253  1.00  0.00     0.032 A 
HETATM   19  C   UNL     1      17.814  -4.681 -16.546  1.00  0.00     0.061 A 
HETATM   20  C   UNL     1      17.763  -2.804 -14.484  1.00  0.00     0.002 A 
HETATM   21  C   UNL     1      18.937  -3.501 -14.754  1.00  0.00     0.002 A 
HETATM   22  C   UNL     1      18.966  -4.421 -15.797  1.00  0.00     0.032 A 
HETATM   23  N   UNL     1      17.914  -5.635 -17.572  1.00  0.00    -0.336 N 
HETATM   24  HN  UNL     1      18.822  -5.951 -17.912  1.00  0.00     0.168 HD
BRANCH  16  25
HETATM   25  C   UNL     1      14.136  -3.748 -16.746  1.00  0.00     0.235 C 
BRANCH  25  26
HETATM   26  C   UNL     1      13.351  -3.351 -18.023  1.00  0.00     0.240 C 
HETATM   27  O   UNL     1      13.588  -2.278 -18.573  1.00  0.00    -0.271 OA
HETATM   28  N   UNL     1      12.360  -4.242 -18.413  1.00  0.00    -0.326 N 
HETATM   29  HN  UNL     1      12.242  -5.070 -17.823  1.00  0.00     0.169 HD
BRANCH  28  30
HETATM   30  C   UNL     1      11.482  -4.119 -19.514  1.00  0.00     0.036 A 
HETATM   31  C   UNL     1      10.869  -2.916 -19.873  1.00  0.00     0.032 A 
HETATM   32  C   UNL     1       9.959  -2.857 -20.927  1.00  0.00     0.046 A 
HETATM   33  C   UNL     1       9.643  -4.013 -21.628  1.00  0.00     0.138 A 
HETATM   34  C   UNL     1      10.270  -5.218 -21.312  1.00  0.00     0.074 A 
HETATM   35  F   UNL     1       8.733  -3.947 -22.609  1.00  0.00    -0.204 F 
HETATM   36  C   UNL     1      11.200  -5.271 -20.263  1.00  0.00     0.056 A 
HETATM   37 CL   UNL     1       9.884  -6.653 -22.180  1.00  0.00    -0.081 Cl
ENDBRANCH  28  30
ENDBRANCH  25  26
ENDBRANCH  16  25
ENDBRANCH   9  13
ENDBRANCH   8   9
ENDBRANCH   5   8
TORSDOF 6
ENDMDL
MODEL 2
REMARK VINA RESULT:      -7.4      2.559      5.374
REMARK  6 active torsions:
REMARK  status: ('A' for Active; 'I' for Inactive)
REMARK    1  A    between atoms: C_5  and  C_8 
REMARK    2  A    between atoms: C_8  and  N_9 
REMARK       I    between atoms: N_9  and  C_10 
REMARK    3  A    between atoms: N_9  and  C_13 
REMARK    4  A    between atoms: N_16  and  C_17 
REMARK    5  A    between atoms: C_17  and  C_18 
REMARK       I    between atoms: C_18  and  N_20 
REMARK    6  A    between atoms: N_20  and  C_21 
ROOT
HETATM    1  C   UNL     1      10.372  -4.830 -21.899  1.00  0.00     0.048 C 
HETATM    2  C   UNL     1      11.053  -3.864 -20.975  1.00  0.00    -0.062 A 
HETATM    3  C   UNL     1      11.497  -4.283 -19.719  1.00  0.00     0.007 A 
HETATM    4  C   UNL     1      11.884  -3.345 -18.762  1.00  0.00     0.009 A 
HETATM    5  C   UNL     1      11.841  -1.967 -19.042  1.00  0.00    -0.040 A 
HETATM    6  C   UNL     1      11.507  -1.561 -20.340  1.00  0.00     0.009 A 
HETATM    7  C   UNL     1      11.112  -2.502 -21.296  1.00  0.00     0.007 A 
ENDROOT
BRANCH   5   8
HETATM    8  C   UNL     1      11.971  -0.976 -17.897  1.00  0.00     0.172 C 
BRANCH   8   9
HETATM    9  N   UNL     1      13.322  -0.798 -17.353  1.00  0.00    -0.295 N 
HETATM   10  C   UNL     1      13.917   0.443 -17.615  1.00  0.00     0.221 C 
HETATM   11  O   UNL     1      13.423   1.263 -18.397  1.00  0.00    -0.273 OA
HETATM   12  C   UNL     1      15.172   0.852 -16.876  1.00  0.00     0.117 C 
BRANCH   9  13
HETATM   13  C   UNL     1      13.914  -1.817 -16.596  1.00  0.00     0.180 C 
HETATM   14  C   UNL     1      14.990  -2.694 -17.269  1.00  0.00     0.293 C 
HETATM   15  O   UNL     1      15.717  -2.291 -18.162  1.00  0.00    -0.264 OA
HETATM   16  N   UNL     1      15.003  -4.016 -16.830  1.00  0.00    -0.300 N 
HETATM   17  C   UNL     1      14.770  -4.197 -15.428  1.00  0.00     0.065 A 
HETATM   18  C   UNL     1      15.272  -5.284 -14.702  1.00  0.00     0.032 A 
HETATM   19  C   UNL     1      14.089  -3.173 -14.731  1.00  0.00     0.061 A 
HETATM   20  C   UNL     1      15.140  -5.330 -13.310  1.00  0.00     0.002 A 
HETATM   21  C   UNL     1      14.469  -4.317 -12.631  1.00  0.00     0.002 A 
HETATM   22  C   UNL     1      13.926  -3.253 -13.345  1.00  0.00     0.032 A 
HETATM   23  N   UNL     1      13.530  -2.061 -15.383  1.00  0.00    -0.336 N 
HETATM   24  HN  UNL     1      12.845  -1.467 -14.917  1.00  0.00     0.168 HD
BRANCH  16  25
HETATM   25  C   UNL     1      15.763  -4.974 -17.628  1.00  0.00     0.235 C 
BRANCH  25  26
HETATM   26  C   UNL     1      15.046  -5.450 -18.918  1.00  0.00     0.240 C 
HETATM   27  O   UNL     1      14.224  -6.362 -18.855  1.00  0.00    -0.271 OA
HETATM   28  N   UNL     1      15.457  -4.830 -20.091  1.00  0.00    -0.326 N 
HETATM   29  HN  UNL     1      16.191  -4.124 -19.992  1.00  0.00     0.169 HD
BRANCH  28  30
HETATM   30  C   UNL     1      14.995  -5.085 -21.402  1.00  0.00     0.036 A 
HETATM   31  C   UNL     1      14.329  -4.132 -22.177  1.00  0.00     0.032 A 
HETATM   32  C   UNL     1      13.833  -4.450 -23.440  1.00  0.00     0.046 A 
HETATM   33  C   UNL     1      13.990  -5.737 -23.937  1.00  0.00     0.138 A 
HETATM   34  C   UNL     1      14.684  -6.694 -23.197  1.00  0.00     0.074 A 
HETATM   35  F   UNL     1      13.468  -6.037 -25.134  1.00  0.00    -0.204 F 
HETATM   36  C   UNL     1      15.199  -6.366 -21.934  1.00  0.00     0.056 A 
HETATM   37 CL   UNL     1      14.883  -8.290 -23.809  1.00  0.00    -0.081 Cl
ENDBRANCH  28  30
ENDBRANCH  25  26
ENDBRANCH  16  25
ENDBRANCH   9  13
ENDBRANCH   8   9
ENDBRANCH   5   8
TORSDOF 6
ENDMDL
MODEL 3
REMARK VINA RESULT:      -7.3      3.621      7.897
REMARK  6 active torsions:
REMARK  status: ('A' for Active; 'I' for Inactive)
REMARK    1  A    between atoms: C_5  and  C_8 
REMARK    2  A    between atoms: C_8  and  N_9 
REMARK       I    between atoms: N_9  and  C_10 
REMARK    3  A    between atoms: N_9  and  C_13 
REMARK    4  A    between atoms: N_16  and  C_17 
REMARK    5  A    between atoms: C_17  and  C_18 
REMARK       I    between atoms: C_18  and  N_20 
REMARK    6  A    between atoms: N_20  and  C_21 
ROOT
HETATM    1  C   UNL     1      13.106  -5.659 -15.001  1.00  0.00     0.048 C 
HETATM    2  C   UNL     1      13.147  -5.260 -16.446  1.00  0.00    -0.062 A 
HETATM    3  C   UNL     1      14.031  -4.270 -16.879  1.00  0.00     0.007 A 
HETATM    4  C   UNL     1      13.892  -3.712 -18.151  1.00  0.00     0.009 A 
HETATM    5  C   UNL     1      12.869  -4.136 -19.018  1.00  0.00    -0.040 A 
HETATM    6  C   UNL     1      12.061  -5.208 -18.621  1.00  0.00     0.009 A 
HETATM    7  C   UNL     1      12.196  -5.761 -17.344  1.00  0.00     0.007 A 
ENDROOT
BRANCH   5   8
HETATM    8  C   UNL     1      12.557  -3.306 -20.253  1.00  0.00     0.172 C 
BRANCH   8   9
HETATM    9  N   UNL     1      11.693  -3.944 -21.252  1.00  0.00    -0.295 N 
HETATM   10  C   UNL     1      10.327  -3.653 -21.139  1.00  0.00     0.221 C 
HETATM   11  O   UNL     1       9.856  -3.052 -20.167  1.00  0.00    -0.273 OA
HETATM   12  C   UNL     1       9.380  -4.011 -22.264  1.00  0.00     0.117 C 
BRANCH   9  13
HETATM   13  C   UNL     1      12.251  -4.747 -22.254  1.00  0.00     0.180 C 
HETATM   14  C   UNL     1      12.330  -6.269 -22.009  1.00  0.00     0.293 C 
HETATM   15  O   UNL     1      11.531  -6.874 -21.313  1.00  0.00    -0.264 OA
HETATM   16  N   UNL     1      13.442  -6.882 -22.581  1.00  0.00    -0.300 N 
HETATM   17  C   UNL     1      13.814  -6.390 -23.874  1.00  0.00     0.065 A 
HETATM   18  C   UNL     1      14.477  -7.170 -24.830  1.00  0.00     0.032 A 
HETATM   19  C   UNL     1      13.395  -5.088 -24.235  1.00  0.00     0.061 A 
HETATM   20  C   UNL     1      14.680  -6.685 -26.126  1.00  0.00     0.002 A 
HETATM   21  C   UNL     1      14.264  -5.403 -26.473  1.00  0.00     0.002 A 
HETATM   22  C   UNL     1      13.642  -4.600 -25.521  1.00  0.00     0.032 A 
HETATM   23  N   UNL     1      12.748  -4.228 -23.332  1.00  0.00    -0.336 N 
HETATM   24  HN  UNL     1      12.671  -3.229 -23.520  1.00  0.00     0.168 HD
BRANCH  16  25
HETATM   25  C   UNL     1      13.755  -8.238 -22.139  1.00  0.00     0.235 C 
BRANCH  25  26
HETATM   26  C   UNL     1      14.787  -8.315 -20.984  1.00  0.00     0.240 C 
HETATM   27  O   UNL     1      15.762  -9.058 -21.088  1.00  0.00    -0.271 OA
HETATM   28  N   UNL     1      14.477  -7.564 -19.858  1.00  0.00    -0.326 N 
HETATM   29  HN  UNL     1      13.603  -7.036 -19.897  1.00  0.00     0.169 HD
BRANCH  28  30
HETATM   30  C   UNL     1      15.220  -7.471 -18.659  1.00  0.00     0.036 A 
HETATM   31  C   UNL     1      14.977  -8.276 -17.544  1.00  0.00     0.032 A 
HETATM   32  C   UNL     1      15.692  -8.103 -16.360  1.00  0.00     0.046 A 
HETATM   33  C   UNL     1      16.656  -7.107 -16.278  1.00  0.00     0.138 A 
HETATM   34  C   UNL     1      16.942  -6.316 -17.390  1.00  0.00     0.074 A 
HETATM   35  F   UNL     1      17.302  -6.925 -15.119  1.00  0.00    -0.204 F 
HETATM   36  C   UNL     1      16.234  -6.505 -18.587  1.00  0.00     0.056 A 
HETATM   37 CL   UNL     1      18.138  -5.082 -17.295  1.00  0.00    -0.081 Cl
ENDBRANCH  28  30
ENDBRANCH  25  26
ENDBRANCH  16  25
ENDBRANCH   9  13
ENDBRANCH   8   9
ENDBRANCH   5   8
TORSDOF 6
ENDMDL
MODEL 4
REMARK VINA RESULT:      -7.3      2.745      3.866
REMARK  6 active torsions:
REMARK  status: ('A' for Active; 'I' for Inactive)
REMARK    1  A    between atoms: C_5  and  C_8 
REMARK    2  A    between atoms: C_8  and  N_9 
REMARK       I    between atoms: N_9  and  C_10 
REMARK    3  A    between atoms: N_9  and  C_13 
REMARK    4  A    between atoms: N_16  and  C_17 
REMARK    5  A    between atoms: C_17  and  C_18 
REMARK       I    between atoms: C_18  and  N_20 
REMARK    6  A    between atoms: N_20  and  C_21 
ROOT
HETATM    1  C   UNL     1      12.781  -4.163 -23.116  1.00  0.00     0.048 C 
HETATM    2  C   UNL     1      13.331  -5.414 -22.497  1.00  0.00    -0.062 A 
HETATM    3  C   UNL     1      14.687  -5.504 -22.174  1.00  0.00     0.007 A 
HETATM    4  C   UNL     1      15.251  -6.738 -21.850  1.00  0.00     0.009 A 
HETATM    5  C   UNL     1      14.471  -7.908 -21.839  1.00  0.00    -0.040 A 
HETATM    6  C   UNL     1      13.093  -7.792 -22.051  1.00  0.00     0.009 A 
HETATM    7  C   UNL     1      12.529  -6.556 -22.381  1.00  0.00     0.007 A 
ENDROOT
BRANCH   5   8
HETATM    8  C   UNL     1      15.167  -9.259 -21.788  1.00  0.00     0.172 C 
BRANCH   8   9
HETATM    9  N   UNL     1      14.816 -10.119 -20.652  1.00  0.00    -0.295 N 
HETATM   10  C   UNL     1      13.986 -11.206 -20.955  1.00  0.00     0.221 C 
HETATM   11  O   UNL     1      13.439 -11.336 -22.056  1.00  0.00    -0.273 OA
HETATM   12  C   UNL     1      13.790 -12.314 -19.943  1.00  0.00     0.117 C 
BRANCH   9  13
HETATM   13  C   UNL     1      15.337  -9.849 -19.381  1.00  0.00     0.180 C 
HETATM   14  C   UNL     1      14.529  -8.927 -18.443  1.00  0.00     0.293 C 
HETATM   15  O   UNL     1      13.313  -8.838 -18.481  1.00  0.00    -0.264 OA
HETATM   16  N   UNL     1      15.313  -8.138 -17.605  1.00  0.00    -0.300 N 
HETATM   17  C   UNL     1      16.479  -8.780 -17.075  1.00  0.00     0.065 A 
HETATM   18  C   UNL     1      17.060  -8.423 -15.851  1.00  0.00     0.032 A 
HETATM   19  C   UNL     1      16.998  -9.895 -17.773  1.00  0.00     0.061 A 
HETATM   20  C   UNL     1      18.104  -9.183 -15.313  1.00  0.00     0.002 A 
HETATM   21  C   UNL     1      18.609 -10.280 -16.006  1.00  0.00     0.002 A 
HETATM   22  C   UNL     1      18.070 -10.619 -17.243  1.00  0.00     0.032 A 
HETATM   23  N   UNL     1      16.494 -10.306 -19.017  1.00  0.00    -0.336 N 
HETATM   24  HN  UNL     1      17.020 -10.943 -19.615  1.00  0.00     0.168 HD
BRANCH  16  25
HETATM   25  C   UNL     1      14.651  -7.029 -16.924  1.00  0.00     0.235 C 
BRANCH  25  26
HETATM   26  C   UNL     1      14.396  -5.786 -17.815  1.00  0.00     0.240 C 
HETATM   27  O   UNL     1      15.287  -5.379 -18.559  1.00  0.00    -0.271 OA
HETATM   28  N   UNL     1      13.163  -5.172 -17.641  1.00  0.00    -0.326 N 
HETATM   29  HN  UNL     1      12.545  -5.595 -16.945  1.00  0.00     0.169 HD
BRANCH  28  30
HETATM   30  C   UNL     1      12.681  -4.016 -18.298  1.00  0.00     0.036 A 
HETATM   31  C   UNL     1      13.161  -2.731 -18.035  1.00  0.00     0.032 A 
HETATM   32  C   UNL     1      12.609  -1.614 -18.659  1.00  0.00     0.046 A 
HETATM   33  C   UNL     1      11.556  -1.773 -19.550  1.00  0.00     0.138 A 
HETATM   34  C   UNL     1      11.086  -3.050 -19.856  1.00  0.00     0.074 A 
HETATM   35  F   UNL     1      11.008  -0.685 -20.107  1.00  0.00    -0.204 F 
HETATM   36  C   UNL     1      11.656  -4.174 -19.241  1.00  0.00     0.056 A 
HETATM   37 CL   UNL     1       9.783  -3.254 -20.962  1.00  0.00    -0.081 Cl
ENDBRANCH  28  30
ENDBRANCH  25  26
ENDBRANCH  16  25
ENDBRANCH   9  13
ENDBRANCH   8   9
ENDBRANCH   5   8
TORSDOF 6
ENDMDL
MODEL 5
REMARK VINA RESULT:      -7.1      2.335      5.423
REMARK  6 active torsions:
REMARK  status: ('A' for Active; 'I' for Inactive)
REMARK    1  A    between atoms: C_5  and  C_8 
REMARK    2  A    between atoms: C_8  and  N_9 
REMARK       I    between atoms: N_9  and  C_10 
REMARK    3  A    between atoms: N_9  and  C_13 
REMARK    4  A    between atoms: N_16  and  C_17 
REMARK    5  A    between atoms: C_17  and  C_18 
REMARK       I    between atoms: C_18  and  N_20 
REMARK    6  A    between atoms: N_20  and  C_21 
ROOT
HETATM    1  C   UNL     1      13.008  -4.062 -12.928  1.00  0.00     0.048 C 
HETATM    2  C   UNL     1      14.462  -4.143 -13.288  1.00  0.00    -0.062 A 
HETATM    3  C   UNL     1      15.089  -3.073 -13.932  1.00  0.00     0.007 A 
HETATM    4  C   UNL     1      16.352  -3.240 -14.501  1.00  0.00     0.009 A 
HETATM    5  C   UNL     1      17.016  -4.478 -14.437  1.00  0.00    -0.040 A 
HETATM    6  C   UNL     1      16.432  -5.510 -13.692  1.00  0.00     0.009 A 
HETATM    7  C   UNL     1      15.163  -5.344 -13.127  1.00  0.00     0.007 A 
ENDROOT
BRANCH   5   8
HETATM    8  C   UNL     1      18.231  -4.712 -15.320  1.00  0.00     0.172 C 
BRANCH   8   9
HETATM    9  N   UNL     1      17.961  -4.865 -16.754  1.00  0.00    -0.295 N 
HETATM   10  C   UNL     1      18.698  -4.021 -17.597  1.00  0.00     0.221 C 
HETATM   11  O   UNL     1      19.388  -3.092 -17.166  1.00  0.00    -0.273 OA
HETATM   12  C   UNL     1      18.723  -4.277 -19.089  1.00  0.00     0.117 C 
BRANCH   9  13
HETATM   13  C   UNL     1      17.051  -5.831 -17.198  1.00  0.00     0.180 C 
HETATM   14  C   UNL     1      15.572  -5.422 -17.355  1.00  0.00     0.293 C 
HETATM   15  O   UNL     1      15.219  -4.287 -17.626  1.00  0.00    -0.264 OA
HETATM   16  N   UNL     1      14.666  -6.443 -17.074  1.00  0.00    -0.300 N 
HETATM   17  C   UNL     1      15.053  -7.746 -17.526  1.00  0.00     0.065 A 
HETATM   18  C   UNL     1      14.132  -8.747 -17.859  1.00  0.00     0.032 A 
HETATM   19  C   UNL     1      16.429  -7.991 -17.744  1.00  0.00     0.061 A 
HETATM   20  C   UNL     1      14.564  -9.946 -18.437  1.00  0.00     0.002 A 
HETATM   21  C   UNL     1      15.920 -10.179 -18.649  1.00  0.00     0.002 A 
HETATM   22  C   UNL     1      16.850  -9.210 -18.282  1.00  0.00     0.032 A 
HETATM   23  N   UNL     1      17.422  -7.054 -17.414  1.00  0.00    -0.336 N 
HETATM   24  HN  UNL     1      18.402  -7.327 -17.347  1.00  0.00     0.168 HD
BRANCH  16  25
HETATM   25  C   UNL     1      13.268  -6.060 -16.893  1.00  0.00     0.235 C 
BRANCH  25  26
HETATM   26  C   UNL     1      12.498  -5.794 -18.212  1.00  0.00     0.240 C 
HETATM   27  O   UNL     1      11.848  -6.701 -18.730  1.00  0.00    -0.271 OA
HETATM   28  N   UNL     1      12.668  -4.528 -18.756  1.00  0.00    -0.326 N 
HETATM   29  HN  UNL     1      13.283  -3.896 -18.238  1.00  0.00     0.169 HD
BRANCH  28  30
HETATM   30  C   UNL     1      12.110  -4.028 -19.954  1.00  0.00     0.036 A 
HETATM   31  C   UNL     1      10.904  -3.324 -20.001  1.00  0.00     0.032 A 
HETATM   32  C   UNL     1      10.359  -2.909 -21.214  1.00  0.00     0.046 A 
HETATM   33  C   UNL     1      11.015  -3.206 -22.402  1.00  0.00     0.138 A 
HETATM   34  C   UNL     1      12.239  -3.875 -22.377  1.00  0.00     0.074 A 
HETATM   35  F   UNL     1      10.455  -2.838 -23.561  1.00  0.00    -0.204 F 
HETATM   36  C   UNL     1      12.795  -4.275 -21.153  1.00  0.00     0.056 A 
HETATM   37 CL   UNL     1      13.058  -4.243 -23.845  1.00  0.00    -0.081 Cl
ENDBRANCH  28  30
ENDBRANCH  25  26
ENDBRANCH  16  25
ENDBRANCH   9  13
ENDBRANCH   8   9
ENDBRANCH   5   8
TORSDOF 6
ENDMDL
MODEL 6
REMARK VINA RESULT:      -7.1      3.055      5.371
REMARK  6 active torsions:
REMARK  status: ('A' for Active; 'I' for Inactive)
REMARK    1  A    between atoms: C_5  and  C_8 
REMARK    2  A    between atoms: C_8  and  N_9 
REMARK       I    between atoms: N_9  and  C_10 
REMARK    3  A    between atoms: N_9  and  C_13 
REMARK    4  A    between atoms: N_16  and  C_17 
REMARK    5  A    between atoms: C_17  and  C_18 
REMARK       I    between atoms: C_18  and  N_20 
REMARK    6  A    between atoms: N_20  and  C_21 
ROOT
HETATM    1  C   UNL     1      14.915  -9.061 -22.391  1.00  0.00     0.048 C 
HETATM    2  C   UNL     1      15.513  -8.247 -21.281  1.00  0.00    -0.062 A 
HETATM    3  C   UNL     1      15.697  -8.808 -20.016  1.00  0.00     0.007 A 
HETATM    4  C   UNL     1      15.999  -7.993 -18.924  1.00  0.00     0.009 A 
HETATM    5  C   UNL     1      16.127  -6.601 -19.075  1.00  0.00    -0.040 A 
HETATM    6  C   UNL     1      16.056  -6.061 -20.365  1.00  0.00     0.009 A 
HETATM    7  C   UNL     1      15.746  -6.877 -21.457  1.00  0.00     0.007 A 
ENDROOT
BRANCH   5   8
HETATM    8  C   UNL     1      16.148  -5.722 -17.835  1.00  0.00     0.172 C 
BRANCH   8   9
HETATM    9  N   UNL     1      14.853  -5.504 -17.181  1.00  0.00    -0.295 N 
HETATM   10  C   UNL     1      14.630  -6.260 -16.022  1.00  0.00     0.221 C 
HETATM   11  O   UNL     1      15.383  -7.175 -15.672  1.00  0.00    -0.273 OA
HETATM   12  C   UNL     1      13.471  -5.921 -15.109  1.00  0.00     0.117 C 
BRANCH   9  13
HETATM   13  C   UNL     1      13.955  -4.563 -17.699  1.00  0.00     0.180 C 
HETATM   14  C   UNL     1      13.001  -5.009 -18.826  1.00  0.00     0.293 C 
HETATM   15  O   UNL     1      12.599  -6.155 -18.945  1.00  0.00    -0.264 OA
HETATM   16  N   UNL     1      12.703  -4.010 -19.750  1.00  0.00    -0.300 N 
HETATM   17  C   UNL     1      12.523  -2.700 -19.197  1.00  0.00     0.065 A 
HETATM   18  C   UNL     1      11.710  -1.724 -19.787  1.00  0.00     0.032 A 
HETATM   19  C   UNL     1      13.113  -2.423 -17.942  1.00  0.00     0.061 A 
HETATM   20  C   UNL     1      11.454  -0.519 -19.125  1.00  0.00     0.002 A 
HETATM   21  C   UNL     1      12.037  -0.254 -17.890  1.00  0.00     0.002 A 
HETATM   22  C   UNL     1      12.882  -1.197 -17.312  1.00  0.00     0.032 A 
HETATM   23  N   UNL     1      13.963  -3.332 -17.292  1.00  0.00    -0.336 N 
HETATM   24  HN  UNL     1      14.565  -3.035 -16.525  1.00  0.00     0.168 HD
BRANCH  16  25
HETATM   25  C   UNL     1      12.073  -4.426 -21.000  1.00  0.00     0.235 C 
BRANCH  25  26
HETATM   26  C   UNL     1      13.013  -4.401 -22.233  1.00  0.00     0.240 C 
HETATM   27  O   UNL     1      13.974  -3.635 -22.249  1.00  0.00    -0.271 OA
HETATM   28  N   UNL     1      12.637  -5.226 -23.284  1.00  0.00    -0.326 N 
HETATM   29  HN  UNL     1      11.780  -5.768 -23.146  1.00  0.00     0.169 HD
BRANCH  28  30
HETATM   30  C   UNL     1      13.289  -5.380 -24.529  1.00  0.00     0.036 A 
HETATM   31  C   UNL     1      13.096  -4.512 -25.606  1.00  0.00     0.032 A 
HETATM   32  C   UNL     1      13.711  -4.741 -26.836  1.00  0.00     0.046 A 
HETATM   33  C   UNL     1      14.520  -5.857 -27.003  1.00  0.00     0.138 A 
HETATM   34  C   UNL     1      14.757  -6.717 -25.930  1.00  0.00     0.074 A 
HETATM   35  F   UNL     1      15.067  -6.086 -28.204  1.00  0.00    -0.204 F 
HETATM   36  C   UNL     1      14.153  -6.473 -24.688  1.00  0.00     0.056 A 
HETATM   37 CL   UNL     1      15.762  -8.100 -26.131  1.00  0.00    -0.081 Cl
ENDBRANCH  28  30
ENDBRANCH  25  26
ENDBRANCH  16  25
ENDBRANCH   9  13
ENDBRANCH   8   9
ENDBRANCH   5   8
TORSDOF 6
ENDMDL
MODEL 7
REMARK VINA RESULT:      -7.1      3.503      7.051
REMARK  6 active torsions:
REMARK  status: ('A' for Active; 'I' for Inactive)
REMARK    1  A    between atoms: C_5  and  C_8 
REMARK    2  A    between atoms: C_8  and  N_9 
REMARK       I    between atoms: N_9  and  C_10 
REMARK    3  A    between atoms: N_9  and  C_13 
REMARK    4  A    between atoms: N_16  and  C_17 
REMARK    5  A    between atoms: C_17  and  C_18 
REMARK       I    between atoms: C_18  and  N_20 
REMARK    6  A    between atoms: N_20  and  C_21 
ROOT
HETATM    1  C   UNL     1      16.971  -7.861 -15.931  1.00  0.00     0.048 C 
HETATM    2  C   UNL     1      15.950  -7.738 -17.024  1.00  0.00    -0.062 A 
HETATM    3  C   UNL     1      14.719  -8.388 -16.914  1.00  0.00     0.007 A 
HETATM    4  C   UNL     1      13.881  -8.497 -18.025  1.00  0.00     0.009 A 
HETATM    5  C   UNL     1      14.256  -7.955 -19.268  1.00  0.00    -0.040 A 
HETATM    6  C   UNL     1      15.436  -7.206 -19.340  1.00  0.00     0.009 A 
HETATM    7  C   UNL     1      16.278  -7.104 -18.228  1.00  0.00     0.007 A 
ENDROOT
BRANCH   5   8
HETATM    8  C   UNL     1      13.478  -8.353 -20.512  1.00  0.00     0.172 C 
BRANCH   8   9
HETATM    9  N   UNL     1      13.454  -7.366 -21.596  1.00  0.00    -0.295 N 
HETATM   10  C   UNL     1      14.359  -7.599 -22.641  1.00  0.00     0.221 C 
HETATM   11  O   UNL     1      15.239  -8.464 -22.575  1.00  0.00    -0.273 OA
HETATM   12  C   UNL     1      14.234  -6.826 -23.937  1.00  0.00     0.117 C 
BRANCH   9  13
HETATM   13  C   UNL     1      12.541  -6.305 -21.561  1.00  0.00     0.180 C 
HETATM   14  C   UNL     1      13.069  -4.900 -21.205  1.00  0.00     0.293 C 
HETATM   15  O   UNL     1      14.206  -4.532 -21.454  1.00  0.00    -0.264 OA
HETATM   16  N   UNL     1      12.165  -4.113 -20.496  1.00  0.00    -0.300 N 
HETATM   17  C   UNL     1      10.797  -4.232 -20.908  1.00  0.00     0.065 A 
HETATM   18  C   UNL     1       9.861  -3.201 -20.762  1.00  0.00     0.032 A 
HETATM   19  C   UNL     1      10.409  -5.409 -21.589  1.00  0.00     0.061 A 
HETATM   20  C   UNL     1       8.582  -3.319 -21.318  1.00  0.00     0.002 A 
HETATM   21  C   UNL     1       8.208  -4.480 -21.988  1.00  0.00     0.002 A 
HETATM   22  C   UNL     1       9.115  -5.530 -22.103  1.00  0.00     0.032 A 
HETATM   23  N   UNL     1      11.275  -6.502 -21.758  1.00  0.00    -0.336 N 
HETATM   24  HN  UNL     1      10.920  -7.419 -22.027  1.00  0.00     0.168 HD
BRANCH  16  25
HETATM   25  C   UNL     1      12.688  -2.910 -19.857  1.00  0.00     0.235 C 
BRANCH  25  26
HETATM   26  C   UNL     1      12.996  -3.067 -18.345  1.00  0.00     0.240 C 
HETATM   27  O   UNL     1      12.816  -2.116 -17.586  1.00  0.00    -0.271 OA
HETATM   28  N   UNL     1      13.534  -4.291 -17.971  1.00  0.00    -0.326 N 
HETATM   29  HN  UNL     1      13.676  -4.968 -18.725  1.00  0.00     0.169 HD
BRANCH  28  30
HETATM   30  C   UNL     1      13.929  -4.694 -16.675  1.00  0.00     0.036 A 
HETATM   31  C   UNL     1      13.110  -5.437 -15.822  1.00  0.00     0.032 A 
HETATM   32  C   UNL     1      13.517  -5.754 -14.527  1.00  0.00     0.046 A 
HETATM   33  C   UNL     1      14.752  -5.316 -14.068  1.00  0.00     0.138 A 
HETATM   34  C   UNL     1      15.603  -4.606 -14.915  1.00  0.00     0.074 A 
HETATM   35  F   UNL     1      15.109  -5.592 -12.806  1.00  0.00    -0.204 F 
HETATM   36  C   UNL     1      15.198  -4.304 -16.224  1.00  0.00     0.056 A 
HETATM   37 CL   UNL     1      17.136  -4.064 -14.352  1.00  0.00    -0.081 Cl
ENDBRANCH  28  30
ENDBRANCH  25  26
ENDBRANCH  16  25
ENDBRANCH   9  13
ENDBRANCH   8   9
ENDBRANCH   5   8
TORSDOF 6
ENDMDL
MODEL 8
REMARK VINA RESULT:      -7.1      2.325      3.169
REMARK  6 active torsions:
REMARK  status: ('A' for Active; 'I' for Inactive)
REMARK    1  A    between atoms: C_5  and  C_8 
REMARK    2  A    between atoms: C_8  and  N_9 
REMARK       I    between atoms: N_9  and  C_10 
REMARK    3  A    between atoms: N_9  and  C_13 
REMARK    4  A    between atoms: N_16  and  C_17 
REMARK    5  A    between atoms: C_17  and  C_18 
REMARK       I    between atoms: C_18  and  N_20 
REMARK    6  A    between atoms: N_20  and  C_21 
ROOT
HETATM    1  C   UNL     1      11.091  -9.194 -19.409  1.00  0.00     0.048 C 
HETATM    2  C   UNL     1      12.587  -9.176 -19.522  1.00  0.00    -0.062 A 
HETATM    3  C   UNL     1      13.350 -10.188 -18.935  1.00  0.00     0.007 A 
HETATM    4  C   UNL     1      14.732 -10.040 -18.807  1.00  0.00     0.009 A 
HETATM    5  C   UNL     1      15.380  -8.880 -19.267  1.00  0.00    -0.040 A 
HETATM    6  C   UNL     1      14.625  -7.924 -19.957  1.00  0.00     0.009 A 
HETATM    7  C   UNL     1      13.240  -8.069 -20.078  1.00  0.00     0.007 A 
ENDROOT
BRANCH   5   8
HETATM    8  C   UNL     1      16.815  -8.618 -18.841  1.00  0.00     0.172 C 
BRANCH   8   9
HETATM    9  N   UNL     1      17.056  -8.569 -17.395  1.00  0.00    -0.295 N 
HETATM   10  C   UNL     1      17.701  -9.689 -16.854  1.00  0.00     0.221 C 
HETATM   11  O   UNL     1      17.891 -10.722 -17.505  1.00  0.00    -0.273 OA
HETATM   12  C   UNL     1      18.256  -9.637 -15.447  1.00  0.00     0.117 C 
BRANCH   9  13
HETATM   13  C   UNL     1      16.684  -7.437 -16.659  1.00  0.00     0.180 C 
HETATM   14  C   UNL     1      15.224  -7.331 -16.172  1.00  0.00     0.293 C 
HETATM   15  O   UNL     1      14.534  -8.304 -15.916  1.00  0.00    -0.264 OA
HETATM   16  N   UNL     1      14.729  -6.029 -16.133  1.00  0.00    -0.300 N 
HETATM   17  C   UNL     1      15.659  -5.035 -15.686  1.00  0.00     0.065 A 
HETATM   18  C   UNL     1      15.267  -3.849 -15.052  1.00  0.00     0.032 A 
HETATM   19  C   UNL     1      17.039  -5.319 -15.799  1.00  0.00     0.061 A 
HETATM   20  C   UNL     1      16.224  -2.988 -14.505  1.00  0.00     0.002 A 
HETATM   21  C   UNL     1      17.581  -3.275 -14.619  1.00  0.00     0.002 A 
HETATM   22  C   UNL     1      17.986  -4.428 -15.285  1.00  0.00     0.032 A 
HETATM   23  N   UNL     1      17.521  -6.471 -16.443  1.00  0.00    -0.336 N 
HETATM   24  HN  UNL     1      18.497  -6.545 -16.730  1.00  0.00     0.168 HD
BRANCH  16  25
HETATM   25  C   UNL     1      13.284  -5.871 -15.990  1.00  0.00     0.235 C 
BRANCH  25  26
HETATM   26  C   UNL     1      12.545  -5.504 -17.303  1.00  0.00     0.240 C 
HETATM   27  O   UNL     1      11.624  -6.214 -17.702  1.00  0.00    -0.271 OA
HETATM   28  N   UNL     1      13.049  -4.401 -17.981  1.00  0.00    -0.326 N 
HETATM   29  HN  UNL     1      13.855  -3.941 -17.553  1.00  0.00     0.169 HD
BRANCH  28  30
HETATM   30  C   UNL     1      12.589  -3.865 -19.205  1.00  0.00     0.036 A 
HETATM   31  C   UNL     1      11.452  -3.059 -19.308  1.00  0.00     0.032 A 
HETATM   32  C   UNL     1      10.999  -2.608 -20.546  1.00  0.00     0.046 A 
HETATM   33  C   UNL     1      11.678  -2.971 -21.702  1.00  0.00     0.138 A 
HETATM   34  C   UNL     1      12.836  -3.744 -21.620  1.00  0.00     0.074 A 
HETATM   35  F   UNL     1      11.203  -2.565 -22.887  1.00  0.00    -0.204 F 
HETATM   36  C   UNL     1      13.301  -4.181 -20.371  1.00  0.00     0.056 A 
HETATM   37 CL   UNL     1      13.683  -4.195 -23.049  1.00  0.00    -0.081 Cl
ENDBRANCH  28  30
ENDBRANCH  25  26
ENDBRANCH  16  25
ENDBRANCH   9  13
ENDBRANCH   8   9
ENDBRANCH   5   8
TORSDOF 6
ENDMDL
MODEL 9
REMARK VINA RESULT:      -7.0      3.461      6.836
REMARK  6 active torsions:
REMARK  status: ('A' for Active; 'I' for Inactive)
REMARK    1  A    between atoms: C_5  and  C_8 
REMARK    2  A    between atoms: C_8  and  N_9 
REMARK       I    between atoms: N_9  and  C_10 
REMARK    3  A    between atoms: N_9  and  C_13 
REMARK    4  A    between atoms: N_16  and  C_17 
REMARK    5  A    between atoms: C_17  and  C_18 
REMARK       I    between atoms: C_18  and  N_20 
REMARK    6  A    between atoms: N_20  and  C_21 
ROOT
HETATM    1  C   UNL     1      17.769 -10.151 -17.495  1.00  0.00     0.048 C 
HETATM    2  C   UNL     1      17.100  -8.828 -17.259  1.00  0.00    -0.062 A 
HETATM    3  C   UNL     1      16.806  -7.986 -18.334  1.00  0.00     0.007 A 
HETATM    4  C   UNL     1      16.434  -6.661 -18.105  1.00  0.00     0.009 A 
HETATM    5  C   UNL     1      16.345  -6.151 -16.797  1.00  0.00    -0.040 A 
HETATM    6  C   UNL     1      16.529  -7.031 -15.725  1.00  0.00     0.009 A 
HETATM    7  C   UNL     1      16.908  -8.357 -15.955  1.00  0.00     0.007 A 
ENDROOT
BRANCH   5   8
HETATM    8  C   UNL     1      16.243  -4.647 -16.596  1.00  0.00     0.172 C 
BRANCH   8   9
HETATM    9  N   UNL     1      14.952  -4.153 -16.106  1.00  0.00    -0.295 N 
HETATM   10  C   UNL     1      14.926  -3.772 -14.757  1.00  0.00     0.221 C 
HETATM   11  O   UNL     1      15.864  -4.003 -13.986  1.00  0.00    -0.273 OA
HETATM   12  C   UNL     1      13.752  -2.987 -14.214  1.00  0.00     0.117 C 
BRANCH   9  13
HETATM   13  C   UNL     1      13.862  -4.049 -16.979  1.00  0.00     0.180 C 
HETATM   14  C   UNL     1      12.923  -5.265 -17.120  1.00  0.00     0.293 C 
HETATM   15  O   UNL     1      12.728  -6.065 -16.220  1.00  0.00    -0.264 OA
HETATM   16  N   UNL     1      12.380  -5.422 -18.393  1.00  0.00    -0.300 N 
HETATM   17  C   UNL     1      12.008  -4.206 -19.053  1.00  0.00     0.065 A 
HETATM   18  C   UNL     1      10.990  -4.136 -20.013  1.00  0.00     0.032 A 
HETATM   19  C   UNL     1      12.630  -3.007 -18.635  1.00  0.00     0.061 A 
HETATM   20  C   UNL     1      10.570  -2.898 -20.512  1.00  0.00     0.002 A 
HETATM   21  C   UNL     1      11.186  -1.722 -20.095  1.00  0.00     0.002 A 
HETATM   22  C   UNL     1      12.228  -1.781 -19.175  1.00  0.00     0.032 A 
HETATM   23  N   UNL     1      13.677  -2.988 -17.699  1.00  0.00    -0.336 N 
HETATM   24  HN  UNL     1      14.270  -2.166 -17.589  1.00  0.00     0.168 HD
BRANCH  16  25
HETATM   25  C   UNL     1      11.745  -6.702 -18.692  1.00  0.00     0.235 C 
BRANCH  25  26
HETATM   26  C   UNL     1      12.680  -7.744 -19.361  1.00  0.00     0.240 C 
HETATM   27  O   UNL     1      13.524  -7.370 -20.173  1.00  0.00    -0.271 OA
HETATM   28  N   UNL     1      12.430  -9.068 -19.026  1.00  0.00    -0.326 N 
HETATM   29  HN  UNL     1      11.657  -9.229 -18.376  1.00  0.00     0.169 HD
BRANCH  28  30
HETATM   30  C   UNL     1      13.105 -10.214 -19.504  1.00  0.00     0.036 A 
HETATM   31  C   UNL     1      14.387 -10.577 -19.084  1.00  0.00     0.032 A 
HETATM   32  C   UNL     1      15.040 -11.679 -19.633  1.00  0.00     0.046 A 
HETATM   33  C   UNL     1      14.415 -12.427 -20.622  1.00  0.00     0.138 A 
HETATM   34  C   UNL     1      13.121 -12.106 -21.030  1.00  0.00     0.074 A 
HETATM   35  F   UNL     1      15.075 -13.456 -21.169  1.00  0.00    -0.204 F 
HETATM   36  C   UNL     1      12.459 -11.007 -20.463  1.00  0.00     0.056 A 
HETATM   37 CL   UNL     1      12.341 -13.031 -22.254  1.00  0.00    -0.081 Cl
ENDBRANCH  28  30
ENDBRANCH  25  26
ENDBRANCH  16  25
ENDBRANCH   9  13
ENDBRANCH   8   9
ENDBRANCH   5   8
TORSDOF 6
ENDMDL
