MODEL 1
REMARK VINA RESULT:      -7.8      0.000      0.000
REMARK  3 active torsions:
REMARK  status: ('A' for Active; 'I' for Inactive)
REMARK    1  A    between atoms: N_12  and  C_13 
REMARK    2  A    between atoms: C_16  and  N_19 
REMARK    3  A    between atoms: N_19  and  C_20 
ROOT
HETATM    1  C   UNL     1      16.003  -9.786 -29.244  1.00  0.00     0.050 C 
HETATM    2  C   UNL     1      16.323  -8.517 -30.034  1.00  0.00     0.166 C 
HETATM    3  N   UNL     1      15.709  -8.561 -31.355  1.00  0.00    -0.270 NA
HETATM    4  C   UNL     1      16.151  -7.481 -32.155  1.00  0.00     0.025 A 
HETATM    5  C   UNL     1      16.070  -7.570 -33.548  1.00  0.00     0.024 A 
HETATM    6  C   UNL     1      16.423  -6.482 -34.352  1.00  0.00     0.002 A 
HETATM    7  C   UNL     1      16.831  -5.281 -33.771  1.00  0.00     0.001 A 
HETATM    8  C   UNL     1      16.876  -5.160 -32.383  1.00  0.00     0.019 A 
HETATM    9  C   UNL     1      16.527  -6.251 -31.581  1.00  0.00     0.053 A 
HETATM   10  C   UNL     1      16.418  -6.089 -30.104  1.00  0.00     0.261 C 
HETATM   11  O   UNL     1      16.575  -4.977 -29.607  1.00  0.00    -0.267 OA
HETATM   12  N   UNL     1      16.024  -7.241 -29.415  1.00  0.00    -0.296 N 
HETATM   13  HN  UNL     1      15.861  -9.449 -31.828  1.00  0.00     0.129 HD
ENDROOT
BRANCH  12  14
HETATM   14  C   UNL     1      15.113  -7.099 -28.338  1.00  0.00     0.039 A 
HETATM   15  C   UNL     1      15.561  -7.150 -27.018  1.00  0.00     0.032 A 
HETATM   16  C   UNL     1      14.651  -7.083 -25.955  1.00  0.00     0.031 A 
HETATM   17  C   UNL     1      13.275  -6.978 -26.191  1.00  0.00     0.032 A 
HETATM   18  C   UNL     1      12.839  -6.924 -27.519  1.00  0.00     0.031 A 
HETATM   19  C   UNL     1      13.741  -6.999 -28.583  1.00  0.00     0.032 A 
BRANCH  17  20
HETATM   20  N   UNL     1      12.324  -6.861 -25.167  1.00  0.00    -0.365 N 
HETATM   21  HN  UNL     1      11.346  -6.891 -25.466  1.00  0.00     0.165 HD
BRANCH  20  22
HETATM   22  C   UNL     1      12.527  -6.845 -23.808  1.00  0.00     0.107 C 
HETATM   23  C   UNL     1      12.568  -5.778 -22.995  1.00  0.00     0.071 C 
HETATM   24  C   UNL     1      12.254  -4.428 -23.519  1.00  0.00     0.165 C 
HETATM   25  C   UNL     1      12.669  -6.001 -21.536  1.00  0.00     0.165 C 
HETATM   26  O   UNL     1      12.586  -4.077 -24.650  1.00  0.00    -0.292 OA
HETATM   27  C   UNL     1      11.382  -3.563 -22.641  1.00  0.00     0.093 C 
HETATM   28  C   UNL     1      11.745  -3.642 -21.147  1.00  0.00    -0.034 C 
HETATM   29  C   UNL     1      10.637  -2.925 -20.349  1.00  0.00     0.015 C 
HETATM   30  C   UNL     1      13.078  -2.917 -20.884  1.00  0.00     0.015 C 
HETATM   31  C   UNL     1      11.827  -5.101 -20.657  1.00  0.00     0.093 C 
HETATM   32  O   UNL     1      13.318  -6.933 -21.067  1.00  0.00    -0.292 OA
ENDBRANCH  20  22
ENDBRANCH  17  20
ENDBRANCH  12  14
TORSDOF 3
ENDMDL
MODEL 2
REMARK VINA RESULT:      -7.6      1.589      2.548
REMARK  3 active torsions:
REMARK  status: ('A' for Active; 'I' for Inactive)
REMARK    1  A    between atoms: N_12  and  C_13 
REMARK    2  A    between atoms: C_16  and  N_19 
REMARK    3  A    between atoms: N_19  and  C_20 
ROOT
HETATM    1  C   UNL     1      15.600  -9.719 -29.468  1.00  0.00     0.050 C 
HETATM    2  C   UNL     1      16.019  -8.485 -30.266  1.00  0.00     0.166 C 
HETATM    3  N   UNL     1      15.326  -8.439 -31.548  1.00  0.00    -0.270 NA
HETATM    4  C   UNL     1      15.843  -7.406 -32.365  1.00  0.00     0.025 A 
HETATM    5  C   UNL     1      15.670  -7.466 -33.752  1.00  0.00     0.024 A 
HETATM    6  C   UNL     1      16.098  -6.414 -34.568  1.00  0.00     0.002 A 
HETATM    7  C   UNL     1      16.677  -5.277 -34.004  1.00  0.00     0.001 A 
HETATM    8  C   UNL     1      16.819  -5.182 -32.621  1.00  0.00     0.019 A 
HETATM    9  C   UNL     1      16.392  -6.236 -31.806  1.00  0.00     0.053 A 
HETATM   10  C   UNL     1      16.391  -6.084 -30.325  1.00  0.00     0.261 C 
HETATM   11  O   UNL     1      16.706  -5.004 -29.830  1.00  0.00    -0.267 OA
HETATM   12  N   UNL     1      15.907  -7.191 -29.622  1.00  0.00    -0.296 N 
HETATM   13  HN  UNL     1      15.345  -9.331 -32.036  1.00  0.00     0.129 HD
ENDROOT
BRANCH  12  14
HETATM   14  C   UNL     1      15.084  -6.960 -28.491  1.00  0.00     0.039 A 
HETATM   15  C   UNL     1      13.764  -6.537 -28.648  1.00  0.00     0.032 A 
HETATM   16  C   UNL     1      12.975  -6.239 -27.529  1.00  0.00     0.031 A 
HETATM   17  C   UNL     1      13.494  -6.343 -26.234  1.00  0.00     0.032 A 
HETATM   18  C   UNL     1      14.818  -6.772 -26.089  1.00  0.00     0.031 A 
HETATM   19  C   UNL     1      15.612  -7.062 -27.202  1.00  0.00     0.032 A 
BRANCH  17  20
HETATM   20  N   UNL     1      12.737  -6.102 -25.078  1.00  0.00    -0.365 N 
HETATM   21  HN  UNL     1      11.964  -6.752 -24.912  1.00  0.00     0.165 HD
BRANCH  20  22
HETATM   22  C   UNL     1      12.974  -5.196 -24.073  1.00  0.00     0.107 C 
HETATM   23  C   UNL     1      13.507  -5.433 -22.864  1.00  0.00     0.071 C 
HETATM   24  C   UNL     1      14.038  -6.774 -22.530  1.00  0.00     0.165 C 
HETATM   25  C   UNL     1      13.795  -4.281 -21.979  1.00  0.00     0.165 C 
HETATM   26  O   UNL     1      13.498  -7.804 -22.931  1.00  0.00    -0.292 OA
HETATM   27  C   UNL     1      15.354  -6.802 -21.792  1.00  0.00     0.093 C 
HETATM   28  C   UNL     1      15.460  -5.738 -20.684  1.00  0.00    -0.034 C 
HETATM   29  C   UNL     1      16.920  -5.706 -20.190  1.00  0.00     0.015 C 
HETATM   30  C   UNL     1      14.554  -6.115 -19.497  1.00  0.00     0.015 C 
HETATM   31  C   UNL     1      15.095  -4.334 -21.206  1.00  0.00     0.093 C 
HETATM   32  O   UNL     1      13.071  -3.288 -21.952  1.00  0.00    -0.292 OA
ENDBRANCH  20  22
ENDBRANCH  17  20
ENDBRANCH  12  14
TORSDOF 3
ENDMDL
MODEL 3
REMARK VINA RESULT:      -7.5      8.659     10.731
REMARK  3 active torsions:
REMARK  status: ('A' for Active; 'I' for Inactive)
REMARK    1  A    between atoms: N_12  and  C_13 
REMARK    2  A    between atoms: C_16  and  N_19 
REMARK    3  A    between atoms: N_19  and  C_20 
ROOT
HETATM    1  C   UNL     1      16.166  -8.569 -20.792  1.00  0.00     0.050 C 
HETATM    2  C   UNL     1      15.074  -9.628 -20.635  1.00  0.00     0.166 C 
HETATM    3  N   UNL     1      15.648 -10.968 -20.654  1.00  0.00    -0.270 NA
HETATM    4  C   UNL     1      14.631 -11.953 -20.696  1.00  0.00     0.025 A 
HETATM    5  C   UNL     1      14.925 -13.234 -21.174  1.00  0.00     0.024 A 
HETATM    6  C   UNL     1      13.958 -14.243 -21.144  1.00  0.00     0.002 A 
HETATM    7  C   UNL     1      12.696 -13.991 -20.607  1.00  0.00     0.001 A 
HETATM    8  C   UNL     1      12.399 -12.732 -20.087  1.00  0.00     0.019 A 
HETATM    9  C   UNL     1      13.367 -11.723 -20.121  1.00  0.00     0.053 A 
HETATM   10  C   UNL     1      13.121 -10.427 -19.430  1.00  0.00     0.261 C 
HETATM   11  O   UNL     1      12.091 -10.278 -18.777  1.00  0.00    -0.267 OA
HETATM   12  N   UNL     1      14.177  -9.514 -19.502  1.00  0.00    -0.296 N 
HETATM   13  HN  UNL     1      16.311 -11.100 -21.414  1.00  0.00     0.129 HD
ENDROOT
BRANCH  12  14
HETATM   14  C   UNL     1      14.484  -8.751 -18.348  1.00  0.00     0.039 A 
HETATM   15  C   UNL     1      13.806  -7.560 -18.082  1.00  0.00     0.032 A 
HETATM   16  C   UNL     1      14.161  -6.770 -16.981  1.00  0.00     0.031 A 
HETATM   17  C   UNL     1      15.208  -7.146 -16.133  1.00  0.00     0.032 A 
HETATM   18  C   UNL     1      15.878  -8.344 -16.407  1.00  0.00     0.031 A 
HETATM   19  C   UNL     1      15.534  -9.132 -17.509  1.00  0.00     0.032 A 
BRANCH  17  20
HETATM   20  N   UNL     1      15.575  -6.419 -14.991  1.00  0.00    -0.365 N 
HETATM   21  HN  UNL     1      16.520  -6.594 -14.640  1.00  0.00     0.165 HD
BRANCH  20  22
HETATM   22  C   UNL     1      14.888  -5.409 -14.362  1.00  0.00     0.107 C 
HETATM   23  C   UNL     1      15.075  -4.086 -14.489  1.00  0.00     0.071 C 
HETATM   24  C   UNL     1      16.033  -3.559 -15.487  1.00  0.00     0.165 C 
HETATM   25  C   UNL     1      14.129  -3.169 -13.813  1.00  0.00     0.165 C 
HETATM   26  O   UNL     1      17.092  -4.133 -15.737  1.00  0.00    -0.292 OA
HETATM   27  C   UNL     1      15.572  -2.360 -16.280  1.00  0.00     0.093 C 
HETATM   28  C   UNL     1      14.833  -1.309 -15.430  1.00  0.00    -0.034 C 
HETATM   29  C   UNL     1      14.205  -0.278 -16.389  1.00  0.00     0.015 C 
HETATM   30  C   UNL     1      15.827  -0.574 -14.511  1.00  0.00     0.015 C 
HETATM   31  C   UNL     1      13.705  -1.944 -14.595  1.00  0.00     0.093 C 
HETATM   32  O   UNL     1      13.634  -3.439 -12.721  1.00  0.00    -0.292 OA
ENDBRANCH  20  22
ENDBRANCH  17  20
ENDBRANCH  12  14
TORSDOF 3
ENDMDL
MODEL 4
REMARK VINA RESULT:      -7.4      2.064     10.061
REMARK  3 active torsions:
REMARK  status: ('A' for Active; 'I' for Inactive)
REMARK    1  A    between atoms: N_12  and  C_13 
REMARK    2  A    between atoms: C_16  and  N_19 
REMARK    3  A    between atoms: N_19  and  C_20 
ROOT
HETATM    1  C   UNL     1      14.432  -3.735 -22.319  1.00  0.00     0.050 C 
HETATM    2  C   UNL     1      13.063  -4.359 -22.047  1.00  0.00     0.166 C 
HETATM    3  N   UNL     1      12.014  -3.350 -22.112  1.00  0.00    -0.270 NA
HETATM    4  C   UNL     1      10.774  -3.881 -21.681  1.00  0.00     0.025 A 
HETATM    5  C   UNL     1       9.770  -3.020 -21.227  1.00  0.00     0.024 A 
HETATM    6  C   UNL     1       8.511  -3.518 -20.878  1.00  0.00     0.002 A 
HETATM    7  C   UNL     1       8.232  -4.878 -21.007  1.00  0.00     0.001 A 
HETATM    8  C   UNL     1       9.207  -5.744 -21.498  1.00  0.00     0.019 A 
HETATM    9  C   UNL     1      10.467  -5.245 -21.844  1.00  0.00     0.053 A 
HETATM   10  C   UNL     1      11.462  -6.126 -22.516  1.00  0.00     0.261 C 
HETATM   11  O   UNL     1      11.143  -7.273 -22.820  1.00  0.00    -0.267 OA
HETATM   12  N   UNL     1      12.669  -5.502 -22.845  1.00  0.00    -0.296 N 
HETATM   13  HN  UNL     1      12.248  -2.507 -21.591  1.00  0.00     0.129 HD
ENDROOT
BRANCH  12  14
HETATM   14  C   UNL     1      13.269  -5.819 -24.090  1.00  0.00     0.039 A 
HETATM   15  C   UNL     1      14.245  -6.813 -24.177  1.00  0.00     0.032 A 
HETATM   16  C   UNL     1      14.888  -7.075 -25.393  1.00  0.00     0.031 A 
HETATM   17  C   UNL     1      14.581  -6.338 -26.543  1.00  0.00     0.032 A 
HETATM   18  C   UNL     1      13.598  -5.347 -26.445  1.00  0.00     0.031 A 
HETATM   19  C   UNL     1      12.959  -5.076 -25.232  1.00  0.00     0.032 A 
BRANCH  17  20
HETATM   20  N   UNL     1      15.160  -6.588 -27.796  1.00  0.00    -0.365 N 
HETATM   21  HN  UNL     1      16.182  -6.562 -27.824  1.00  0.00     0.165 HD
BRANCH  20  22
HETATM   22  C   UNL     1      14.546  -6.993 -28.956  1.00  0.00     0.107 C 
HETATM   23  C   UNL     1      14.934  -6.750 -30.218  1.00  0.00     0.071 C 
HETATM   24  C   UNL     1      16.224  -6.074 -30.486  1.00  0.00     0.165 C 
HETATM   25  C   UNL     1      14.192  -7.396 -31.324  1.00  0.00     0.165 C 
HETATM   26  O   UNL     1      16.648  -5.174 -29.763  1.00  0.00    -0.292 OA
HETATM   27  C   UNL     1      17.053  -6.647 -31.611  1.00  0.00     0.093 C 
HETATM   28  C   UNL     1      16.222  -7.037 -32.847  1.00  0.00    -0.034 C 
HETATM   29  C   UNL     1      17.135  -7.830 -33.804  1.00  0.00     0.015 C 
HETATM   30  C   UNL     1      15.734  -5.773 -33.580  1.00  0.00     0.015 C 
HETATM   31  C   UNL     1      15.024  -7.930 -32.471  1.00  0.00     0.093 C 
HETATM   32  O   UNL     1      12.979  -7.584 -31.268  1.00  0.00    -0.292 OA
ENDBRANCH  20  22
ENDBRANCH  17  20
ENDBRANCH  12  14
TORSDOF 3
ENDMDL
MODEL 5
REMARK VINA RESULT:      -7.4      8.491     12.441
REMARK  3 active torsions:
REMARK  status: ('A' for Active; 'I' for Inactive)
REMARK    1  A    between atoms: N_12  and  C_13 
REMARK    2  A    between atoms: C_16  and  N_19 
REMARK    3  A    between atoms: N_19  and  C_20 
ROOT
HETATM    1  C   UNL     1      17.893  -9.373 -15.857  1.00  0.00     0.050 C 
HETATM    2  C   UNL     1      17.060  -8.114 -15.623  1.00  0.00     0.166 C 
HETATM    3  N   UNL     1      17.896  -6.922 -15.678  1.00  0.00    -0.270 NA
HETATM    4  C   UNL     1      17.169  -5.774 -15.281  1.00  0.00     0.025 A 
HETATM    5  C   UNL     1      17.853  -4.644 -14.821  1.00  0.00     0.024 A 
HETATM    6  C   UNL     1      17.158  -3.473 -14.505  1.00  0.00     0.002 A 
HETATM    7  C   UNL     1      15.775  -3.408 -14.673  1.00  0.00     0.001 A 
HETATM    8  C   UNL     1      15.083  -4.511 -15.170  1.00  0.00     0.019 A 
HETATM    9  C   UNL     1      15.779  -5.683 -15.483  1.00  0.00     0.053 A 
HETATM   10  C   UNL     1      15.080  -6.810 -16.161  1.00  0.00     0.261 C 
HETATM   11  O   UNL     1      13.906  -6.675 -16.499  1.00  0.00    -0.267 OA
HETATM   12  N   UNL     1      15.891  -7.910 -16.456  1.00  0.00    -0.296 N 
HETATM   13  HN  UNL     1      18.750  -7.017 -15.134  1.00  0.00     0.129 HD
ENDROOT
BRANCH  12  14
HETATM   14  C   UNL     1      15.704  -8.566 -17.699  1.00  0.00     0.039 A 
HETATM   15  C   UNL     1      16.408  -8.155 -18.831  1.00  0.00     0.032 A 
HETATM   16  C   UNL     1      16.169  -8.756 -20.074  1.00  0.00     0.031 A 
HETATM   17  C   UNL     1      15.212  -9.768 -20.212  1.00  0.00     0.032 A 
HETATM   18  C   UNL     1      14.517 -10.175 -19.068  1.00  0.00     0.031 A 
HETATM   19  C   UNL     1      14.745  -9.573 -17.828  1.00  0.00     0.032 A 
BRANCH  17  20
HETATM   20  N   UNL     1      14.965 -10.436 -21.420  1.00  0.00    -0.365 N 
HETATM   21  HN  UNL     1      15.796 -10.719 -21.947  1.00  0.00     0.165 HD
BRANCH  20  22
HETATM   22  C   UNL     1      13.766 -10.878 -21.925  1.00  0.00     0.107 C 
HETATM   23  C   UNL     1      13.298 -12.136 -21.947  1.00  0.00     0.071 C 
HETATM   24  C   UNL     1      14.042 -13.222 -21.268  1.00  0.00     0.165 C 
HETATM   25  C   UNL     1      11.916 -12.369 -22.423  1.00  0.00     0.165 C 
HETATM   26  O   UNL     1      15.271 -13.258 -21.255  1.00  0.00    -0.292 OA
HETATM   27  C   UNL     1      13.210 -14.199 -20.473  1.00  0.00     0.093 C 
HETATM   28  C   UNL     1      11.905 -14.610 -21.179  1.00  0.00    -0.034 C 
HETATM   29  C   UNL     1      11.043 -15.396 -20.170  1.00  0.00     0.015 C 
HETATM   30  C   UNL     1      12.215 -15.533 -22.373  1.00  0.00     0.015 C 
HETATM   31  C   UNL     1      11.100 -13.384 -21.650  1.00  0.00     0.093 C 
HETATM   32  O   UNL     1      11.422 -11.703 -23.329  1.00  0.00    -0.292 OA
ENDBRANCH  20  22
ENDBRANCH  17  20
ENDBRANCH  12  14
TORSDOF 3
ENDMDL
MODEL 6
REMARK VINA RESULT:      -7.4      4.497     11.636
REMARK  3 active torsions:
REMARK  status: ('A' for Active; 'I' for Inactive)
REMARK    1  A    between atoms: N_12  and  C_13 
REMARK    2  A    between atoms: C_16  and  N_19 
REMARK    3  A    between atoms: N_19  and  C_20 
ROOT
HETATM    1  C   UNL     1      13.238  -4.723 -17.035  1.00  0.00     0.050 C 
HETATM    2  C   UNL     1      13.615  -3.264 -16.781  1.00  0.00     0.166 C 
HETATM    3  N   UNL     1      14.905  -3.172 -16.109  1.00  0.00    -0.270 NA
HETATM    4  C   UNL     1      15.172  -1.842 -15.706  1.00  0.00     0.025 A 
HETATM    5  C   UNL     1      16.086  -1.599 -14.675  1.00  0.00     0.024 A 
HETATM    6  C   UNL     1      16.427  -0.290 -14.321  1.00  0.00     0.002 A 
HETATM    7  C   UNL     1      15.881   0.791 -15.013  1.00  0.00     0.001 A 
HETATM    8  C   UNL     1      15.001   0.566 -16.071  1.00  0.00     0.019 A 
HETATM    9  C   UNL     1      14.659  -0.744 -16.422  1.00  0.00     0.053 A 
HETATM   10  C   UNL     1      13.849  -1.004 -17.644  1.00  0.00     0.261 C 
HETATM   11  O   UNL     1      13.540  -0.064 -18.373  1.00  0.00    -0.267 OA
HETATM   12  N   UNL     1      13.605  -2.355 -17.910  1.00  0.00    -0.296 N 
HETATM   13  HN  UNL     1      14.983  -3.812 -15.321  1.00  0.00     0.129 HD
ENDROOT
BRANCH  12  14
HETATM   14  C   UNL     1      13.664  -2.794 -19.256  1.00  0.00     0.039 A 
HETATM   15  C   UNL     1      12.494  -3.025 -19.981  1.00  0.00     0.032 A 
HETATM   16  C   UNL     1      12.553  -3.529 -21.287  1.00  0.00     0.031 A 
HETATM   17  C   UNL     1      13.781  -3.826 -21.888  1.00  0.00     0.032 A 
HETATM   18  C   UNL     1      14.948  -3.587 -21.153  1.00  0.00     0.031 A 
HETATM   19  C   UNL     1      14.894  -3.092 -19.848  1.00  0.00     0.032 A 
BRANCH  17  20
HETATM   20  N   UNL     1      13.902  -4.288 -23.207  1.00  0.00    -0.365 N 
HETATM   21  HN  UNL     1      13.781  -3.581 -23.936  1.00  0.00     0.165 HD
BRANCH  20  22
HETATM   22  C   UNL     1      14.292  -5.530 -23.647  1.00  0.00     0.107 C 
HETATM   23  C   UNL     1      14.271  -6.000 -24.904  1.00  0.00     0.071 C 
HETATM   24  C   UNL     1      13.908  -5.108 -26.029  1.00  0.00     0.165 C 
HETATM   25  C   UNL     1      14.863  -7.329 -25.173  1.00  0.00     0.165 C 
HETATM   26  O   UNL     1      13.044  -4.240 -25.917  1.00  0.00    -0.292 OA
HETATM   27  C   UNL     1      14.756  -5.230 -27.272  1.00  0.00     0.093 C 
HETATM   28  C   UNL     1      15.095  -6.685 -27.643  1.00  0.00    -0.034 C 
HETATM   29  C   UNL     1      16.157  -6.657 -28.761  1.00  0.00     0.015 C 
HETATM   30  C   UNL     1      13.843  -7.402 -28.183  1.00  0.00     0.015 C 
HETATM   31  C   UNL     1      15.676  -7.459 -26.444  1.00  0.00     0.093 C 
HETATM   32  O   UNL     1      14.789  -8.248 -24.361  1.00  0.00    -0.292 OA
ENDBRANCH  20  22
ENDBRANCH  17  20
ENDBRANCH  12  14
TORSDOF 3
ENDMDL
MODEL 7
REMARK VINA RESULT:      -7.4      1.546      2.018
REMARK  3 active torsions:
REMARK  status: ('A' for Active; 'I' for Inactive)
REMARK    1  A    between atoms: N_12  and  C_13 
REMARK    2  A    between atoms: C_16  and  N_19 
REMARK    3  A    between atoms: N_19  and  C_20 
ROOT
HETATM    1  C   UNL     1      14.265  -9.275 -29.199  1.00  0.00     0.050 C 
HETATM    2  C   UNL     1      15.047  -8.215 -29.974  1.00  0.00     0.166 C 
HETATM    3  N   UNL     1      14.350  -7.853 -31.202  1.00  0.00    -0.270 NA
HETATM    4  C   UNL     1      15.154  -7.014 -32.011  1.00  0.00     0.025 A 
HETATM    5  C   UNL     1      14.901  -6.925 -33.384  1.00  0.00     0.024 A 
HETATM    6  C   UNL     1      15.628  -6.038 -34.184  1.00  0.00     0.002 A 
HETATM    7  C   UNL     1      16.595  -5.209 -33.616  1.00  0.00     0.001 A 
HETATM    8  C   UNL     1      16.830  -5.254 -32.242  1.00  0.00     0.019 A 
HETATM    9  C   UNL     1      16.104  -6.144 -31.444  1.00  0.00     0.053 A 
HETATM   10  C   UNL     1      16.230  -6.092 -29.961  1.00  0.00     0.261 C 
HETATM   11  O   UNL     1      16.927  -5.221 -29.446  1.00  0.00    -0.267 OA
HETATM   12  N   UNL     1      15.427  -7.005 -29.272  1.00  0.00    -0.296 N 
HETATM   13  HN  UNL     1      14.033  -8.665 -31.726  1.00  0.00     0.129 HD
ENDROOT
BRANCH  12  14
HETATM   14  C   UNL     1      14.794  -6.573 -28.078  1.00  0.00     0.039 A 
HETATM   15  C   UNL     1      13.668  -5.751 -28.129  1.00  0.00     0.032 A 
HETATM   16  C   UNL     1      13.088  -5.266 -26.949  1.00  0.00     0.031 A 
HETATM   17  C   UNL     1      13.630  -5.581 -25.698  1.00  0.00     0.032 A 
HETATM   18  C   UNL     1      14.757  -6.411 -25.661  1.00  0.00     0.031 A 
HETATM   19  C   UNL     1      15.344  -6.890 -26.834  1.00  0.00     0.032 A 
BRANCH  17  20
HETATM   20  N   UNL     1      13.065  -5.163 -24.485  1.00  0.00    -0.365 N 
HETATM   21  HN  UNL     1      12.068  -5.363 -24.369  1.00  0.00     0.165 HD
BRANCH  20  22
HETATM   22  C   UNL     1      13.695  -4.642 -23.381  1.00  0.00     0.107 C 
HETATM   23  C   UNL     1      13.151  -4.337 -22.192  1.00  0.00     0.071 C 
HETATM   24  C   UNL     1      11.737  -4.673 -21.909  1.00  0.00     0.165 C 
HETATM   25  C   UNL     1      14.045  -3.907 -21.094  1.00  0.00     0.165 C 
HETATM   26  O   UNL     1      10.865  -4.596 -22.774  1.00  0.00    -0.292 OA
HETATM   27  C   UNL     1      11.454  -5.250 -20.543  1.00  0.00     0.093 C 
HETATM   28  C   UNL     1      12.223  -4.549 -19.409  1.00  0.00    -0.034 C 
HETATM   29  C   UNL     1      12.044  -5.383 -18.124  1.00  0.00     0.015 C 
HETATM   30  C   UNL     1      11.640  -3.144 -19.160  1.00  0.00     0.015 C 
HETATM   31  C   UNL     1      13.730  -4.452 -19.717  1.00  0.00     0.093 C 
HETATM   32  O   UNL     1      15.049  -3.230 -21.302  1.00  0.00    -0.292 OA
ENDBRANCH  20  22
ENDBRANCH  17  20
ENDBRANCH  12  14
TORSDOF 3
ENDMDL
MODEL 8
REMARK VINA RESULT:      -7.4      3.382     10.759
REMARK  3 active torsions:
REMARK  status: ('A' for Active; 'I' for Inactive)
REMARK    1  A    between atoms: N_12  and  C_13 
REMARK    2  A    between atoms: C_16  and  N_19 
REMARK    3  A    between atoms: N_19  and  C_20 
ROOT
HETATM    1  C   UNL     1      11.711  -2.998 -19.633  1.00  0.00     0.050 C 
HETATM    2  C   UNL     1      12.816  -3.723 -18.865  1.00  0.00     0.166 C 
HETATM    3  N   UNL     1      12.248  -4.655 -17.899  1.00  0.00    -0.270 NA
HETATM    4  C   UNL     1      13.255  -5.189 -17.060  1.00  0.00     0.025 A 
HETATM    5  C   UNL     1      12.910  -5.717 -15.811  1.00  0.00     0.024 A 
HETATM    6  C   UNL     1      13.877  -6.326 -15.005  1.00  0.00     0.002 A 
HETATM    7  C   UNL     1      15.193  -6.441 -15.451  1.00  0.00     0.001 A 
HETATM    8  C   UNL     1      15.546  -5.959 -16.711  1.00  0.00     0.019 A 
HETATM    9  C   UNL     1      14.578  -5.347 -17.514  1.00  0.00     0.053 A 
HETATM   10  C   UNL     1      14.900  -4.971 -18.919  1.00  0.00     0.261 C 
HETATM   11  O   UNL     1      16.001  -5.261 -19.383  1.00  0.00    -0.267 OA
HETATM   12  N   UNL     1      13.841  -4.403 -19.632  1.00  0.00    -0.296 N 
HETATM   13  HN  UNL     1      11.500  -4.240 -17.348  1.00  0.00     0.129 HD
ENDROOT
BRANCH  12  14
HETATM   14  C   UNL     1      13.671  -4.775 -20.989  1.00  0.00     0.039 A 
HETATM   15  C   UNL     1      14.145  -3.956 -22.015  1.00  0.00     0.032 A 
HETATM   16  C   UNL     1      13.912  -4.288 -23.356  1.00  0.00     0.031 A 
HETATM   17  C   UNL     1      13.188  -5.436 -23.698  1.00  0.00     0.032 A 
HETATM   18  C   UNL     1      12.721  -6.251 -22.661  1.00  0.00     0.031 A 
HETATM   19  C   UNL     1      12.943  -5.920 -21.322  1.00  0.00     0.032 A 
BRANCH  17  20
HETATM   20  N   UNL     1      12.965  -5.841 -25.022  1.00  0.00    -0.365 N 
HETATM   21  HN  UNL     1      12.067  -6.297 -25.200  1.00  0.00     0.165 HD
BRANCH  20  22
HETATM   22  C   UNL     1      13.731  -5.588 -26.134  1.00  0.00     0.107 C 
HETATM   23  C   UNL     1      14.771  -6.300 -26.594  1.00  0.00     0.071 C 
HETATM   24  C   UNL     1      15.136  -7.587 -25.958  1.00  0.00     0.165 C 
HETATM   25  C   UNL     1      15.373  -5.919 -27.892  1.00  0.00     0.165 C 
HETATM   26  O   UNL     1      15.045  -7.759 -24.743  1.00  0.00    -0.292 OA
HETATM   27  C   UNL     1      15.487  -8.715 -26.897  1.00  0.00     0.093 C 
HETATM   28  C   UNL     1      16.363  -8.275 -28.085  1.00  0.00    -0.034 C 
HETATM   29  C   UNL     1      16.435  -9.447 -29.084  1.00  0.00     0.015 C 
HETATM   30  C   UNL     1      17.792  -7.960 -27.604  1.00  0.00     0.015 C 
HETATM   31  C   UNL     1      15.766  -7.055 -28.812  1.00  0.00     0.093 C 
HETATM   32  O   UNL     1      15.454  -4.746 -28.248  1.00  0.00    -0.292 OA
ENDBRANCH  20  22
ENDBRANCH  17  20
ENDBRANCH  12  14
TORSDOF 3
ENDMDL
MODEL 9
REMARK VINA RESULT:      -7.3     11.277     13.913
REMARK  3 active torsions:
REMARK  status: ('A' for Active; 'I' for Inactive)
REMARK    1  A    between atoms: N_12  and  C_13 
REMARK    2  A    between atoms: C_16  and  N_19 
REMARK    3  A    between atoms: N_19  and  C_20 
ROOT
HETATM    1  C   UNL     1      13.704  -3.246 -12.908  1.00  0.00     0.050 C 
HETATM    2  C   UNL     1      14.632  -4.189 -13.672  1.00  0.00     0.166 C 
HETATM    3  N   UNL     1      13.870  -5.061 -14.558  1.00  0.00    -0.270 NA
HETATM    4  C   UNL     1      14.701  -6.056 -15.126  1.00  0.00     0.025 A 
HETATM    5  C   UNL     1      14.133  -7.238 -15.613  1.00  0.00     0.024 A 
HETATM    6  C   UNL     1      14.926  -8.194 -16.255  1.00  0.00     0.002 A 
HETATM    7  C   UNL     1      16.289  -7.968 -16.442  1.00  0.00     0.001 A 
HETATM    8  C   UNL     1      16.863  -6.777 -16.000  1.00  0.00     0.019 A 
HETATM    9  C   UNL     1      16.069  -5.822 -15.356  1.00  0.00     0.053 A 
HETATM   10  C   UNL     1      16.632  -4.484 -15.022  1.00  0.00     0.261 C 
HETATM   11  O   UNL     1      17.776  -4.206 -15.374  1.00  0.00    -0.267 OA
HETATM   12  N   UNL     1      15.731  -3.604 -14.415  1.00  0.00    -0.296 N 
HETATM   13  HN  UNL     1      13.065  -5.479 -14.097  1.00  0.00     0.129 HD
ENDROOT
BRANCH  12  14
HETATM   14  C   UNL     1      15.761  -2.240 -14.803  1.00  0.00     0.039 A 
HETATM   15  C   UNL     1      16.587  -1.332 -14.139  1.00  0.00     0.032 A 
HETATM   16  C   UNL     1      16.562   0.028 -14.474  1.00  0.00     0.031 A 
HETATM   17  C   UNL     1      15.702   0.509 -15.468  1.00  0.00     0.032 A 
HETATM   18  C   UNL     1      14.883  -0.412 -16.129  1.00  0.00     0.031 A 
HETATM   19  C   UNL     1      14.897  -1.768 -15.793  1.00  0.00     0.032 A 
BRANCH  17  20
HETATM   20  N   UNL     1      15.669   1.850 -15.876  1.00  0.00    -0.365 N 
HETATM   21  HN  UNL     1      15.839   2.541 -15.140  1.00  0.00     0.165 HD
BRANCH  20  22
HETATM   22  C   UNL     1      15.573   2.356 -17.149  1.00  0.00     0.107 C 
HETATM   23  C   UNL     1      16.561   2.527 -18.042  1.00  0.00     0.071 C 
HETATM   24  C   UNL     1      17.927   2.035 -17.748  1.00  0.00     0.165 C 
HETATM   25  C   UNL     1      16.211   2.968 -19.411  1.00  0.00     0.165 C 
HETATM   26  O   UNL     1      18.405   2.084 -16.616  1.00  0.00    -0.292 OA
HETATM   27  C   UNL     1      18.641   1.344 -18.884  1.00  0.00     0.093 C 
HETATM   28  C   UNL     1      18.450   2.041 -20.244  1.00  0.00    -0.034 C 
HETATM   29  C   UNL     1      19.008   1.110 -21.340  1.00  0.00     0.015 C 
HETATM   30  C   UNL     1      19.242   3.361 -20.281  1.00  0.00     0.015 C 
HETATM   31  C   UNL     1      16.962   2.305 -20.545  1.00  0.00     0.093 C 
HETATM   32  O   UNL     1      15.289   3.753 -19.622  1.00  0.00    -0.292 OA
ENDBRANCH  20  22
ENDBRANCH  17  20
ENDBRANCH  12  14
TORSDOF 3
ENDMDL
