MODEL 1
REMARK VINA RESULT:      -7.8      0.000      0.000
REMARK  5 active torsions:
REMARK  status: ('A' for Active; 'I' for Inactive)
REMARK    1  A    between atoms: C_2  and  N_3 
REMARK    2  A    between atoms: C_12  and  C_13 
REMARK    3  A    between atoms: C_18  and  S_20 
REMARK    4  A    between atoms: S_20  and  N_23 
REMARK    5  A    between atoms: N_23  and  C_24 
ROOT
HETATM    1  C   UNL     1      16.159   2.030 -19.096  1.00  0.00     0.028 C 
HETATM    2  C   UNL     1      15.161   1.851 -17.965  1.00  0.00     0.148 C 
ENDROOT
BRANCH   2   3
HETATM    3  N   UNL     1      14.943   0.450 -17.625  1.00  0.00    -0.257 N 
HETATM    4  C   UNL     1      14.912   0.080 -16.293  1.00  0.00     0.268 A 
HETATM    5  O   UNL     1      15.163   0.843 -15.362  1.00  0.00    -0.266 OA
HETATM    6  C   UNL     1      14.504  -1.322 -16.020  1.00  0.00     0.020 A 
HETATM    7  C   UNL     1      14.303  -1.644 -14.560  1.00  0.00     0.045 C 
HETATM    8  C   UNL     1      14.291  -2.202 -17.018  1.00  0.00    -0.017 A 
HETATM    9  C   UNL     1      13.496  -2.919 -14.343  1.00  0.00     0.005 C 
HETATM   10  C   UNL     1      14.030  -4.026 -15.238  1.00  0.00     0.005 C 
HETATM   11  C   UNL     1      13.908  -3.627 -16.714  1.00  0.00     0.042 C 
HETATM   12  C   UNL     1      14.459  -1.661 -18.413  1.00  0.00     0.065 A 
HETATM   13  N   UNL     1      14.764  -0.421 -18.669  1.00  0.00    -0.294 N 
HETATM   14  HN  UNL     1      14.868  -0.101 -19.632  1.00  0.00     0.187 HD
BRANCH  12  15
HETATM   15  C   UNL     1      14.224  -2.528 -19.624  1.00  0.00    -0.006 A 
HETATM   16  C   UNL     1      15.322  -2.938 -20.392  1.00  0.00     0.014 A 
HETATM   17  C   UNL     1      15.144  -3.565 -21.636  1.00  0.00     0.009 A 
HETATM   18  C   UNL     1      13.862  -3.771 -22.176  1.00  0.00    -0.039 A 
HETATM   19  C   UNL     1      13.746  -4.392 -23.540  1.00  0.00     0.050 C 
HETATM   20  C   UNL     1      12.764  -3.338 -21.417  1.00  0.00     0.086 A 
HETATM   21  C   UNL     1      12.952  -2.755 -20.144  1.00  0.00     0.039 A 
BRANCH  20  22
HETATM   22  S   UNL     1      11.063  -3.424 -21.984  1.00  0.00     0.263 S 
HETATM   23  O   UNL     1      10.183  -2.932 -20.947  1.00  0.00    -0.200 OA
HETATM   24  O   UNL     1      11.038  -2.832 -23.305  1.00  0.00    -0.200 OA
BRANCH  22  25
HETATM   25  N   UNL     1      10.765  -5.077 -22.089  1.00  0.00    -0.280 N 
HETATM   26  HN  UNL     1      10.628  -5.444 -23.027  1.00  0.00     0.179 HD
BRANCH  25  27
HETATM   27  C   UNL     1      10.288  -5.818 -20.974  1.00  0.00     0.048 A 
HETATM   28  C   UNL     1      11.181  -6.170 -19.957  1.00  0.00     0.030 A 
HETATM   29  C   UNL     1      10.751  -6.956 -18.885  1.00  0.00     0.002 A 
HETATM   30  C   UNL     1       9.426  -7.373 -18.817  1.00  0.00     0.001 A 
HETATM   31  C   UNL     1       8.523  -6.985 -19.813  1.00  0.00     0.009 A 
HETATM   32  C   UNL     1       8.942  -6.199 -20.899  1.00  0.00    -0.035 A 
HETATM   33  C   UNL     1       7.932  -5.752 -21.918  1.00  0.00     0.050 C 
ENDBRANCH  25  27
ENDBRANCH  22  25
ENDBRANCH  20  22
ENDBRANCH  12  15
ENDBRANCH   2   3
TORSDOF 5
ENDMDL
MODEL 2
REMARK VINA RESULT:      -7.6      3.128      5.474
REMARK  5 active torsions:
REMARK  status: ('A' for Active; 'I' for Inactive)
REMARK    1  A    between atoms: C_2  and  N_3 
REMARK    2  A    between atoms: C_12  and  C_13 
REMARK    3  A    between atoms: C_18  and  S_20 
REMARK    4  A    between atoms: S_20  and  N_23 
REMARK    5  A    between atoms: N_23  and  C_24 
ROOT
HETATM    1  C   UNL     1      12.661  -4.075 -12.680  1.00  0.00     0.028 C 
HETATM    2  C   UNL     1      14.158  -4.095 -12.942  1.00  0.00     0.148 C 
ENDROOT
BRANCH   2   3
HETATM    3  N   UNL     1      14.501  -4.773 -14.187  1.00  0.00    -0.257 N 
HETATM    4  C   UNL     1      15.654  -5.534 -14.240  1.00  0.00     0.268 A 
HETATM    5  O   UNL     1      16.478  -5.598 -13.330  1.00  0.00    -0.266 OA
HETATM    6  C   UNL     1      15.841  -6.340 -15.474  1.00  0.00     0.020 A 
HETATM    7  C   UNL     1      17.007  -7.296 -15.428  1.00  0.00     0.045 C 
HETATM    8  C   UNL     1      14.995  -6.239 -16.517  1.00  0.00    -0.017 A 
HETATM    9  C   UNL     1      16.923  -8.380 -16.497  1.00  0.00     0.005 C 
HETATM   10  C   UNL     1      16.582  -7.754 -17.841  1.00  0.00     0.005 C 
HETATM   11  C   UNL     1      15.224  -7.044 -17.771  1.00  0.00     0.042 C 
HETATM   12  C   UNL     1      13.840  -5.291 -16.333  1.00  0.00     0.065 A 
HETATM   13  N   UNL     1      13.633  -4.619 -15.236  1.00  0.00    -0.294 N 
HETATM   14  HN  UNL     1      12.836  -3.986 -15.160  1.00  0.00     0.187 HD
BRANCH  12  15
HETATM   15  C   UNL     1      12.800  -5.101 -17.409  1.00  0.00    -0.006 A 
HETATM   16  C   UNL     1      11.956  -6.171 -17.735  1.00  0.00     0.014 A 
HETATM   17  C   UNL     1      11.117  -6.116 -18.860  1.00  0.00     0.009 A 
HETATM   18  C   UNL     1      11.121  -5.005 -19.723  1.00  0.00    -0.039 A 
HETATM   19  C   UNL     1      10.244  -5.038 -20.944  1.00  0.00     0.050 C 
HETATM   20  C   UNL     1      11.985  -3.945 -19.409  1.00  0.00     0.086 A 
HETATM   21  C   UNL     1      12.785  -3.988 -18.246  1.00  0.00     0.039 A 
BRANCH  20  22
HETATM   22  S   UNL     1      12.200  -2.493 -20.441  1.00  0.00     0.263 S 
HETATM   23  O   UNL     1      11.287  -2.556 -21.561  1.00  0.00    -0.200 OA
HETATM   24  O   UNL     1      12.188  -1.349 -19.552  1.00  0.00    -0.200 OA
BRANCH  22  25
HETATM   25  N   UNL     1      13.738  -2.697 -21.094  1.00  0.00    -0.280 N 
HETATM   26  HN  UNL     1      14.184  -1.855 -21.448  1.00  0.00     0.179 HD
BRANCH  25  27
HETATM   27  C   UNL     1      14.193  -3.967 -21.539  1.00  0.00     0.048 A 
HETATM   28  C   UNL     1      13.585  -4.557 -22.652  1.00  0.00     0.030 A 
HETATM   29  C   UNL     1      13.969  -5.835 -23.067  1.00  0.00     0.002 A 
HETATM   30  C   UNL     1      14.972  -6.514 -22.384  1.00  0.00     0.001 A 
HETATM   31  C   UNL     1      15.609  -5.907 -21.298  1.00  0.00     0.009 A 
HETATM   32  C   UNL     1      15.231  -4.625 -20.866  1.00  0.00    -0.035 A 
HETATM   33  C   UNL     1      15.978  -3.978 -19.732  1.00  0.00     0.050 C 
ENDBRANCH  25  27
ENDBRANCH  22  25
ENDBRANCH  20  22
ENDBRANCH  12  15
ENDBRANCH   2   3
TORSDOF 5
ENDMDL
MODEL 3
REMARK VINA RESULT:      -7.6      3.685      8.119
REMARK  5 active torsions:
REMARK  status: ('A' for Active; 'I' for Inactive)
REMARK    1  A    between atoms: C_2  and  N_3 
REMARK    2  A    between atoms: C_12  and  C_13 
REMARK    3  A    between atoms: C_18  and  S_20 
REMARK    4  A    between atoms: S_20  and  N_23 
REMARK    5  A    between atoms: N_23  and  C_24 
ROOT
HETATM    1  C   UNL     1      13.324  -5.822 -14.699  1.00  0.00     0.028 C 
HETATM    2  C   UNL     1      13.675  -6.189 -16.131  1.00  0.00     0.148 C 
ENDROOT
BRANCH   2   3
HETATM    3  N   UNL     1      13.404  -5.107 -17.071  1.00  0.00    -0.257 N 
HETATM    4  C   UNL     1      12.473  -5.306 -18.073  1.00  0.00     0.268 A 
HETATM    5  O   UNL     1      11.923  -6.383 -18.297  1.00  0.00    -0.266 OA
HETATM    6  C   UNL     1      12.116  -4.107 -18.873  1.00  0.00     0.020 A 
HETATM    7  C   UNL     1      10.971  -4.311 -19.833  1.00  0.00     0.045 C 
HETATM    8  C   UNL     1      12.750  -2.930 -18.701  1.00  0.00    -0.017 A 
HETATM    9  C   UNL     1      10.362  -2.998 -20.313  1.00  0.00     0.005 C 
HETATM   10  C   UNL     1      11.467  -2.040 -20.733  1.00  0.00     0.005 C 
HETATM   11  C   UNL     1      12.390  -1.735 -19.547  1.00  0.00     0.042 C 
HETATM   12  C   UNL     1      13.807  -2.908 -17.630  1.00  0.00     0.065 A 
HETATM   13  N   UNL     1      14.093  -3.937 -16.883  1.00  0.00    -0.294 N 
HETATM   14  HN  UNL     1      14.819  -3.873 -16.170  1.00  0.00     0.187 HD
BRANCH  12  15
HETATM   15  C   UNL     1      14.575  -1.649 -17.310  1.00  0.00    -0.006 A 
HETATM   16  C   UNL     1      14.063  -0.765 -16.350  1.00  0.00     0.014 A 
HETATM   17  C   UNL     1      14.625   0.509 -16.166  1.00  0.00     0.009 A 
HETATM   18  C   UNL     1      15.693   0.961 -16.961  1.00  0.00    -0.039 A 
HETATM   19  C   UNL     1      16.205   2.359 -16.752  1.00  0.00     0.050 C 
HETATM   20  C   UNL     1      16.188   0.084 -17.939  1.00  0.00     0.086 A 
HETATM   21  C   UNL     1      15.651  -1.215 -18.080  1.00  0.00     0.039 A 
BRANCH  20  22
HETATM   22  S   UNL     1      17.476   0.519 -19.110  1.00  0.00     0.263 S 
HETATM   23  O   UNL     1      16.978   1.519 -20.028  1.00  0.00    -0.200 OA
HETATM   24  O   UNL     1      18.672   0.770 -18.334  1.00  0.00    -0.200 OA
BRANCH  22  25
HETATM   25  N   UNL     1      17.668  -0.883 -20.024  1.00  0.00    -0.280 N 
HETATM   26  HN  UNL     1      16.949  -1.591 -19.905  1.00  0.00     0.179 HD
BRANCH  25  27
HETATM   27  C   UNL     1      18.933  -1.254 -20.555  1.00  0.00     0.048 A 
HETATM   28  C   UNL     1      19.372  -0.666 -21.745  1.00  0.00     0.030 A 
HETATM   29  C   UNL     1      20.580  -1.066 -22.322  1.00  0.00     0.002 A 
HETATM   30  C   UNL     1      21.359  -2.036 -21.701  1.00  0.00     0.001 A 
HETATM   31  C   UNL     1      20.940  -2.593 -20.489  1.00  0.00     0.009 A 
HETATM   32  C   UNL     1      19.726  -2.205 -19.898  1.00  0.00    -0.035 A 
HETATM   33  C   UNL     1      19.337  -2.780 -18.565  1.00  0.00     0.050 C 
ENDBRANCH  25  27
ENDBRANCH  22  25
ENDBRANCH  20  22
ENDBRANCH  12  15
ENDBRANCH   2   3
TORSDOF 5
ENDMDL
MODEL 4
REMARK VINA RESULT:      -7.5      5.960      9.250
REMARK  5 active torsions:
REMARK  status: ('A' for Active; 'I' for Inactive)
REMARK    1  A    between atoms: C_2  and  N_3 
REMARK    2  A    between atoms: C_12  and  C_13 
REMARK    3  A    between atoms: C_18  and  S_20 
REMARK    4  A    between atoms: S_20  and  N_23 
REMARK    5  A    between atoms: N_23  and  C_24 
ROOT
HETATM    1  C   UNL     1      18.216  -9.243 -15.269  1.00  0.00     0.028 C 
HETATM    2  C   UNL     1      17.221  -8.625 -16.236  1.00  0.00     0.148 C 
ENDROOT
BRANCH   2   3
HETATM    3  N   UNL     1      16.801  -7.288 -15.833  1.00  0.00    -0.257 N 
HETATM    4  C   UNL     1      15.462  -7.051 -15.583  1.00  0.00     0.268 A 
HETATM    5  O   UNL     1      14.570  -7.874 -15.781  1.00  0.00    -0.266 OA
HETATM    6  C   UNL     1      15.137  -5.724 -15.002  1.00  0.00     0.020 A 
HETATM    7  C   UNL     1      13.700  -5.563 -14.571  1.00  0.00     0.045 C 
HETATM    8  C   UNL     1      16.079  -4.775 -14.838  1.00  0.00    -0.017 A 
HETATM    9  C   UNL     1      13.497  -4.392 -13.617  1.00  0.00     0.005 C 
HETATM   10  C   UNL     1      14.212  -3.160 -14.153  1.00  0.00     0.005 C 
HETATM   11  C   UNL     1      15.717  -3.425 -14.274  1.00  0.00     0.042 C 
HETATM   12  C   UNL     1      17.474  -5.162 -15.249  1.00  0.00     0.065 A 
HETATM   13  N   UNL     1      17.785  -6.341 -15.710  1.00  0.00    -0.294 N 
HETATM   14  HN  UNL     1      18.745  -6.555 -15.977  1.00  0.00     0.187 HD
BRANCH  12  15
HETATM   15  C   UNL     1      18.632  -4.208 -15.094  1.00  0.00    -0.006 A 
HETATM   16  C   UNL     1      19.243  -4.077 -13.840  1.00  0.00     0.014 A 
HETATM   17  C   UNL     1      20.181  -3.061 -13.593  1.00  0.00     0.009 A 
HETATM   18  C   UNL     1      20.512  -2.113 -14.578  1.00  0.00    -0.039 A 
HETATM   19  C   UNL     1      21.476  -1.015 -14.226  1.00  0.00     0.050 C 
HETATM   20  C   UNL     1      19.880  -2.231 -15.826  1.00  0.00     0.086 A 
HETATM   21  C   UNL     1      18.979  -3.288 -16.081  1.00  0.00     0.039 A 
BRANCH  20  22
HETATM   22  S   UNL     1      20.099  -1.061 -17.169  1.00  0.00     0.263 S 
HETATM   23  O   UNL     1      19.333   0.135 -16.899  1.00  0.00    -0.200 OA
HETATM   24  O   UNL     1      21.523  -0.976 -17.414  1.00  0.00    -0.200 OA
BRANCH  22  25
HETATM   25  N   UNL     1      19.335  -1.807 -18.471  1.00  0.00    -0.280 N 
HETATM   26  HN  UNL     1      18.752  -2.608 -18.243  1.00  0.00     0.179 HD
BRANCH  25  27
HETATM   27  C   UNL     1      19.808  -1.645 -19.801  1.00  0.00     0.048 A 
HETATM   28  C   UNL     1      20.853  -2.455 -20.257  1.00  0.00     0.030 A 
HETATM   29  C   UNL     1      21.379  -2.267 -21.537  1.00  0.00     0.002 A 
HETATM   30  C   UNL     1      20.850  -1.287 -22.369  1.00  0.00     0.001 A 
HETATM   31  C   UNL     1      19.777  -0.506 -21.928  1.00  0.00     0.009 A 
HETATM   32  C   UNL     1      19.240  -0.679 -20.642  1.00  0.00    -0.035 A 
HETATM   33  C   UNL     1      18.048   0.137 -20.224  1.00  0.00     0.050 C 
ENDBRANCH  25  27
ENDBRANCH  22  25
ENDBRANCH  20  22
ENDBRANCH  12  15
ENDBRANCH   2   3
TORSDOF 5
ENDMDL
MODEL 5
REMARK VINA RESULT:      -7.5      1.141      1.503
REMARK  5 active torsions:
REMARK  status: ('A' for Active; 'I' for Inactive)
REMARK    1  A    between atoms: C_2  and  N_3 
REMARK    2  A    between atoms: C_12  and  C_13 
REMARK    3  A    between atoms: C_18  and  S_20 
REMARK    4  A    between atoms: S_20  and  N_23 
REMARK    5  A    between atoms: N_23  and  C_24 
ROOT
HETATM    1  C   UNL     1      14.217   2.491 -18.688  1.00  0.00     0.028 C 
HETATM    2  C   UNL     1      15.346   1.852 -17.896  1.00  0.00     0.148 C 
ENDROOT
BRANCH   2   3
HETATM    3  N   UNL     1      15.076   0.460 -17.556  1.00  0.00    -0.257 N 
HETATM    4  C   UNL     1      15.018   0.094 -16.224  1.00  0.00     0.268 A 
HETATM    5  O   UNL     1      15.284   0.850 -15.291  1.00  0.00    -0.266 OA
HETATM    6  C   UNL     1      14.559  -1.292 -15.953  1.00  0.00     0.020 A 
HETATM    7  C   UNL     1      14.330  -1.604 -14.495  1.00  0.00     0.045 C 
HETATM    8  C   UNL     1      14.327  -2.166 -16.952  1.00  0.00    -0.017 A 
HETATM    9  C   UNL     1      13.477  -2.849 -14.284  1.00  0.00     0.005 C 
HETATM   10  C   UNL     1      13.983  -3.977 -15.171  1.00  0.00     0.005 C 
HETATM   11  C   UNL     1      13.890  -3.577 -16.649  1.00  0.00     0.042 C 
HETATM   12  C   UNL     1      14.529  -1.635 -18.345  1.00  0.00     0.065 A 
HETATM   13  N   UNL     1      14.879  -0.406 -18.600  1.00  0.00    -0.294 N 
HETATM   14  HN  UNL     1      15.005  -0.093 -19.562  1.00  0.00     0.187 HD
BRANCH  12  15
HETATM   15  C   UNL     1      14.277  -2.495 -19.558  1.00  0.00    -0.006 A 
HETATM   16  C   UNL     1      15.363  -2.887 -20.352  1.00  0.00     0.014 A 
HETATM   17  C   UNL     1      15.165  -3.508 -21.596  1.00  0.00     0.009 A 
HETATM   18  C   UNL     1      13.874  -3.725 -22.110  1.00  0.00    -0.039 A 
HETATM   19  C   UNL     1      13.736  -4.338 -23.476  1.00  0.00     0.050 C 
HETATM   20  C   UNL     1      12.788  -3.310 -21.325  1.00  0.00     0.086 A 
HETATM   21  C   UNL     1      12.997  -2.735 -20.052  1.00  0.00     0.039 A 
BRANCH  20  22
HETATM   22  S   UNL     1      11.076  -3.412 -21.854  1.00  0.00     0.263 S 
HETATM   23  O   UNL     1      10.236  -2.704 -20.915  1.00  0.00    -0.200 OA
HETATM   24  O   UNL     1      11.058  -3.063 -23.260  1.00  0.00    -0.200 OA
BRANCH  22  25
HETATM   25  N   UNL     1      10.701  -5.042 -21.663  1.00  0.00    -0.280 N 
HETATM   26  HN  UNL     1       9.816  -5.343 -22.065  1.00  0.00     0.179 HD
BRANCH  25  27
HETATM   27  C   UNL     1      11.311  -5.831 -20.651  1.00  0.00     0.048 A 
HETATM   28  C   UNL     1      11.075  -5.520 -19.308  1.00  0.00     0.030 A 
HETATM   29  C   UNL     1      11.718  -6.238 -18.297  1.00  0.00     0.002 A 
HETATM   30  C   UNL     1      12.580  -7.278 -18.625  1.00  0.00     0.001 A 
HETATM   31  C   UNL     1      12.783  -7.617 -19.966  1.00  0.00     0.009 A 
HETATM   32  C   UNL     1      12.147  -6.902 -20.994  1.00  0.00    -0.035 A 
HETATM   33  C   UNL     1      12.342  -7.332 -22.422  1.00  0.00     0.050 C 
ENDBRANCH  25  27
ENDBRANCH  22  25
ENDBRANCH  20  22
ENDBRANCH  12  15
ENDBRANCH   2   3
TORSDOF 5
ENDMDL
MODEL 6
REMARK VINA RESULT:      -7.5      5.763      8.900
REMARK  5 active torsions:
REMARK  status: ('A' for Active; 'I' for Inactive)
REMARK    1  A    between atoms: C_2  and  N_3 
REMARK    2  A    between atoms: C_12  and  C_13 
REMARK    3  A    between atoms: C_18  and  S_20 
REMARK    4  A    between atoms: S_20  and  N_23 
REMARK    5  A    between atoms: N_23  and  C_24 
ROOT
HETATM    1  C   UNL     1      17.923  -9.231 -15.607  1.00  0.00     0.028 C 
HETATM    2  C   UNL     1      16.953  -8.516 -16.532  1.00  0.00     0.148 C 
ENDROOT
BRANCH   2   3
HETATM    3  N   UNL     1      16.563  -7.203 -16.032  1.00  0.00    -0.257 N 
HETATM    4  C   UNL     1      15.240  -6.976 -15.702  1.00  0.00     0.268 A 
HETATM    5  O   UNL     1      14.334  -7.783 -15.900  1.00  0.00    -0.266 OA
HETATM    6  C   UNL     1      14.953  -5.683 -15.029  1.00  0.00     0.020 A 
HETATM    7  C   UNL     1      13.541  -5.541 -14.517  1.00  0.00     0.045 C 
HETATM    8  C   UNL     1      15.909  -4.749 -14.860  1.00  0.00    -0.017 A 
HETATM    9  C   UNL     1      13.396  -4.426 -13.488  1.00  0.00     0.005 C 
HETATM   10  C   UNL     1      14.090  -3.168 -13.989  1.00  0.00     0.005 C 
HETATM   11  C   UNL     1      15.586  -3.432 -14.201  1.00  0.00     0.042 C 
HETATM   12  C   UNL     1      17.279  -5.116 -15.363  1.00  0.00     0.065 A 
HETATM   13  N   UNL     1      17.558  -6.267 -15.906  1.00  0.00    -0.294 N 
HETATM   14  HN  UNL     1      18.502  -6.470 -16.234  1.00  0.00     0.187 HD
BRANCH  12  15
HETATM   15  C   UNL     1      18.449  -4.177 -15.213  1.00  0.00    -0.006 A 
HETATM   16  C   UNL     1      19.108  -4.101 -13.979  1.00  0.00     0.014 A 
HETATM   17  C   UNL     1      20.062  -3.102 -13.726  1.00  0.00     0.009 A 
HETATM   18  C   UNL     1      20.364  -2.117 -14.684  1.00  0.00    -0.039 A 
HETATM   19  C   UNL     1      21.349  -1.041 -14.324  1.00  0.00     0.050 C 
HETATM   20  C   UNL     1      19.686  -2.180 -15.911  1.00  0.00     0.086 A 
HETATM   21  C   UNL     1      18.767  -3.220 -16.175  1.00  0.00     0.039 A 
BRANCH  20  22
HETATM   22  S   UNL     1      19.864  -0.959 -17.214  1.00  0.00     0.263 S 
HETATM   23  O   UNL     1      21.229  -0.483 -17.246  1.00  0.00    -0.200 OA
HETATM   24  O   UNL     1      19.261  -1.529 -18.400  1.00  0.00    -0.200 OA
BRANCH  22  25
HETATM   25  N   UNL     1      18.941   0.339 -16.667  1.00  0.00    -0.280 N 
HETATM   26  HN  UNL     1      19.463   1.130 -16.299  1.00  0.00     0.179 HD
BRANCH  25  27
HETATM   27  C   UNL     1      17.574   0.181 -16.316  1.00  0.00     0.048 A 
HETATM   28  C   UNL     1      16.655  -0.193 -17.302  1.00  0.00     0.030 A 
HETATM   29  C   UNL     1      15.295  -0.287 -16.996  1.00  0.00     0.002 A 
HETATM   30  C   UNL     1      14.856  -0.029 -15.702  1.00  0.00     0.001 A 
HETATM   31  C   UNL     1      15.779   0.303 -14.707  1.00  0.00     0.009 A 
HETATM   32  C   UNL     1      17.149   0.406 -15.000  1.00  0.00    -0.035 A 
HETATM   33  C   UNL     1      18.120   0.707 -13.892  1.00  0.00     0.050 C 
ENDBRANCH  25  27
ENDBRANCH  22  25
ENDBRANCH  20  22
ENDBRANCH  12  15
ENDBRANCH   2   3
TORSDOF 5
ENDMDL
MODEL 7
REMARK VINA RESULT:      -7.4      5.396      9.419
REMARK  5 active torsions:
REMARK  status: ('A' for Active; 'I' for Inactive)
REMARK    1  A    between atoms: C_2  and  N_3 
REMARK    2  A    between atoms: C_12  and  C_13 
REMARK    3  A    between atoms: C_18  and  S_20 
REMARK    4  A    between atoms: S_20  and  N_23 
REMARK    5  A    between atoms: N_23  and  C_24 
ROOT
HETATM    1  C   UNL     1      16.368 -10.422 -27.245  1.00  0.00     0.028 C 
HETATM    2  C   UNL     1      14.922 -10.095 -26.912  1.00  0.00     0.148 C 
ENDROOT
BRANCH   2   3
HETATM    3  N   UNL     1      14.799  -9.012 -25.944  1.00  0.00    -0.257 N 
HETATM    4  C   UNL     1      14.651  -7.716 -26.403  1.00  0.00     0.268 A 
HETATM    5  O   UNL     1      14.721  -7.393 -27.588  1.00  0.00    -0.266 OA
HETATM    6  C   UNL     1      14.349  -6.693 -25.368  1.00  0.00     0.020 A 
HETATM    7  C   UNL     1      14.013  -5.328 -25.915  1.00  0.00     0.045 C 
HETATM    8  C   UNL     1      14.336  -7.001 -24.056  1.00  0.00    -0.017 A 
HETATM    9  C   UNL     1      13.310  -4.441 -24.894  1.00  0.00     0.005 C 
HETATM   10  C   UNL     1      14.046  -4.502 -23.563  1.00  0.00     0.005 C 
HETATM   11  C   UNL     1      14.056  -5.938 -23.024  1.00  0.00     0.042 C 
HETATM   12  C   UNL     1      14.611  -8.441 -23.719  1.00  0.00     0.065 A 
HETATM   13  N   UNL     1      14.824  -9.359 -24.618  1.00  0.00    -0.294 N 
HETATM   14  HN  UNL     1      15.008 -10.323 -24.340  1.00  0.00     0.187 HD
BRANCH  12  15
HETATM   15  C   UNL     1      14.599  -8.930 -22.292  1.00  0.00    -0.006 A 
HETATM   16  C   UNL     1      13.393  -9.376 -21.736  1.00  0.00     0.014 A 
HETATM   17  C   UNL     1      13.283  -9.644 -20.362  1.00  0.00     0.009 A 
HETATM   18  C   UNL     1      14.365  -9.438 -19.487  1.00  0.00    -0.039 A 
HETATM   19  C   UNL     1      14.159  -9.685 -18.018  1.00  0.00     0.050 C 
HETATM   20  C   UNL     1      15.564  -8.967 -20.041  1.00  0.00     0.086 A 
HETATM   21  C   UNL     1      15.680  -8.751 -21.432  1.00  0.00     0.039 A 
BRANCH  20  22
HETATM   22  S   UNL     1      17.016  -8.551 -19.072  1.00  0.00     0.263 S 
HETATM   23  O   UNL     1      17.212  -9.547 -18.042  1.00  0.00    -0.200 OA
HETATM   24  O   UNL     1      18.074  -8.260 -20.017  1.00  0.00    -0.200 OA
BRANCH  22  25
HETATM   25  N   UNL     1      16.563  -7.144 -18.266  1.00  0.00    -0.280 N 
HETATM   26  HN  UNL     1      15.928  -7.268 -17.482  1.00  0.00     0.179 HD
BRANCH  25  27
HETATM   27  C   UNL     1      16.671  -5.868 -18.883  1.00  0.00     0.048 A 
HETATM   28  C   UNL     1      17.926  -5.260 -18.976  1.00  0.00     0.030 A 
HETATM   29  C   UNL     1      18.047  -3.977 -19.515  1.00  0.00     0.002 A 
HETATM   30  C   UNL     1      16.919  -3.311 -19.981  1.00  0.00     0.001 A 
HETATM   31  C   UNL     1      15.669  -3.937 -19.927  1.00  0.00     0.009 A 
HETATM   32  C   UNL     1      15.531  -5.224 -19.383  1.00  0.00    -0.035 A 
HETATM   33  C   UNL     1      14.183  -5.890 -19.396  1.00  0.00     0.050 C 
ENDBRANCH  25  27
ENDBRANCH  22  25
ENDBRANCH  20  22
ENDBRANCH  12  15
ENDBRANCH   2   3
TORSDOF 5
ENDMDL
MODEL 8
REMARK VINA RESULT:      -7.4      4.144      8.738
REMARK  5 active torsions:
REMARK  status: ('A' for Active; 'I' for Inactive)
REMARK    1  A    between atoms: C_2  and  N_3 
REMARK    2  A    between atoms: C_12  and  C_13 
REMARK    3  A    between atoms: C_18  and  S_20 
REMARK    4  A    between atoms: S_20  and  N_23 
REMARK    5  A    between atoms: N_23  and  C_24 
ROOT
HETATM    1  C   UNL     1      11.770   0.440 -18.629  1.00  0.00     0.028 C 
HETATM    2  C   UNL     1      11.508  -1.044 -18.430  1.00  0.00     0.148 C 
ENDROOT
BRANCH   2   3
HETATM    3  N   UNL     1      12.238  -1.875 -19.380  1.00  0.00    -0.257 N 
HETATM    4  C   UNL     1      11.538  -2.529 -20.376  1.00  0.00     0.268 A 
HETATM    5  O   UNL     1      10.311  -2.544 -20.458  1.00  0.00    -0.266 OA
HETATM    6  C   UNL     1      12.362  -3.204 -21.411  1.00  0.00     0.020 A 
HETATM    7  C   UNL     1      11.579  -3.750 -22.579  1.00  0.00     0.045 C 
HETATM    8  C   UNL     1      13.705  -3.267 -21.313  1.00  0.00    -0.017 A 
HETATM    9  C   UNL     1      12.456  -4.045 -23.791  1.00  0.00     0.005 C 
HETATM   10  C   UNL     1      13.695  -4.813 -23.357  1.00  0.00     0.005 C 
HETATM   11  C   UNL     1      14.517  -3.985 -22.361  1.00  0.00     0.042 C 
HETATM   12  C   UNL     1      14.305  -2.584 -20.114  1.00  0.00     0.065 A 
HETATM   13  N   UNL     1      13.599  -1.942 -19.227  1.00  0.00    -0.294 N 
HETATM   14  HN  UNL     1      14.052  -1.495 -18.429  1.00  0.00     0.187 HD
BRANCH  12  15
HETATM   15  C   UNL     1      15.797  -2.552 -19.893  1.00  0.00    -0.006 A 
HETATM   16  C   UNL     1      16.454  -3.729 -19.513  1.00  0.00     0.014 A 
HETATM   17  C   UNL     1      17.795  -3.708 -19.096  1.00  0.00     0.009 A 
HETATM   18  C   UNL     1      18.517  -2.504 -19.007  1.00  0.00    -0.039 A 
HETATM   19  C   UNL     1      19.929  -2.548 -18.494  1.00  0.00     0.050 C 
HETATM   20  C   UNL     1      17.849  -1.323 -19.364  1.00  0.00     0.086 A 
HETATM   21  C   UNL     1      16.517  -1.361 -19.832  1.00  0.00     0.039 A 
BRANCH  20  22
HETATM   22  S   UNL     1      18.571   0.314 -19.220  1.00  0.00     0.263 S 
HETATM   23  O   UNL     1      17.537   1.271 -18.897  1.00  0.00    -0.200 OA
HETATM   24  O   UNL     1      19.734   0.178 -18.369  1.00  0.00    -0.200 OA
BRANCH  22  25
HETATM   25  N   UNL     1      19.050   0.674 -20.794  1.00  0.00    -0.280 N 
HETATM   26  HN  UNL     1      18.311   0.978 -21.423  1.00  0.00     0.179 HD
BRANCH  25  27
HETATM   27  C   UNL     1      20.263   0.168 -21.335  1.00  0.00     0.048 A 
HETATM   28  C   UNL     1      20.269  -1.097 -21.930  1.00  0.00     0.030 A 
HETATM   29  C   UNL     1      21.463  -1.644 -22.406  1.00  0.00     0.002 A 
HETATM   30  C   UNL     1      22.646  -0.919 -22.309  1.00  0.00     0.001 A 
HETATM   31  C   UNL     1      22.632   0.364 -21.752  1.00  0.00     0.009 A 
HETATM   32  C   UNL     1      21.440   0.925 -21.264  1.00  0.00    -0.035 A 
HETATM   33  C   UNL     1      21.451   2.329 -20.727  1.00  0.00     0.050 C 
ENDBRANCH  25  27
ENDBRANCH  22  25
ENDBRANCH  20  22
ENDBRANCH  12  15
ENDBRANCH   2   3
TORSDOF 5
ENDMDL
MODEL 9
REMARK VINA RESULT:      -7.4      4.164      7.960
REMARK  5 active torsions:
REMARK  status: ('A' for Active; 'I' for Inactive)
REMARK    1  A    between atoms: C_2  and  N_3 
REMARK    2  A    between atoms: C_12  and  C_13 
REMARK    3  A    between atoms: C_18  and  S_20 
REMARK    4  A    between atoms: S_20  and  N_23 
REMARK    5  A    between atoms: N_23  and  C_24 
ROOT
HETATM    1  C   UNL     1       8.060  -9.594 -17.938  1.00  0.00     0.028 C 
HETATM    2  C   UNL     1       7.370  -8.615 -18.874  1.00  0.00     0.148 C 
ENDROOT
BRANCH   2   3
HETATM    3  N   UNL     1       8.291  -7.639 -19.444  1.00  0.00    -0.257 N 
HETATM    4  C   UNL     1       7.850  -6.814 -20.462  1.00  0.00     0.268 A 
HETATM    5  O   UNL     1       6.749  -6.916 -21.000  1.00  0.00    -0.266 OA
HETATM    6  C   UNL     1       8.779  -5.728 -20.864  1.00  0.00     0.020 A 
HETATM    7  C   UNL     1       8.200  -4.737 -21.842  1.00  0.00     0.045 C 
HETATM    8  C   UNL     1      10.019  -5.632 -20.344  1.00  0.00    -0.017 A 
HETATM    9  C   UNL     1       8.995  -3.437 -21.906  1.00  0.00     0.005 C 
HETATM   10  C   UNL     1      10.480  -3.746 -22.016  1.00  0.00     0.005 C 
HETATM   11  C   UNL     1      10.955  -4.538 -20.792  1.00  0.00     0.042 C 
HETATM   12  C   UNL     1      10.378  -6.669 -19.315  1.00  0.00     0.065 A 
HETATM   13  N   UNL     1       9.554  -7.595 -18.913  1.00  0.00    -0.294 N 
HETATM   14  HN  UNL     1       9.845  -8.278 -18.212  1.00  0.00     0.187 HD
BRANCH  12  15
HETATM   15  C   UNL     1      11.722  -6.664 -18.630  1.00  0.00    -0.006 A 
HETATM   16  C   UNL     1      11.921  -5.821 -17.528  1.00  0.00     0.014 A 
HETATM   17  C   UNL     1      13.202  -5.625 -16.988  1.00  0.00     0.009 A 
HETATM   18  C   UNL     1      14.337  -6.233 -17.553  1.00  0.00    -0.039 A 
HETATM   19  C   UNL     1      15.686  -5.931 -16.963  1.00  0.00     0.050 C 
HETATM   20  C   UNL     1      14.140  -7.057 -18.672  1.00  0.00     0.086 A 
HETATM   21  C   UNL     1      12.841  -7.290 -19.175  1.00  0.00     0.039 A 
BRANCH  20  22
HETATM   22  S   UNL     1      15.473  -7.836 -19.586  1.00  0.00     0.263 S 
HETATM   23  O   UNL     1      16.511  -8.250 -18.669  1.00  0.00    -0.200 OA
HETATM   24  O   UNL     1      14.856  -8.799 -20.475  1.00  0.00    -0.200 OA
BRANCH  22  25
HETATM   25  N   UNL     1      16.131  -6.570 -20.479  1.00  0.00    -0.280 N 
HETATM   26  HN  UNL     1      17.011  -6.195 -20.134  1.00  0.00     0.179 HD
BRANCH  25  27
HETATM   27  C   UNL     1      15.333  -5.783 -21.353  1.00  0.00     0.048 A 
HETATM   28  C   UNL     1      14.726  -6.392 -22.456  1.00  0.00     0.030 A 
HETATM   29  C   UNL     1      13.993  -5.627 -23.366  1.00  0.00     0.002 A 
HETATM   30  C   UNL     1      13.848  -4.259 -23.163  1.00  0.00     0.001 A 
HETATM   31  C   UNL     1      14.418  -3.657 -22.037  1.00  0.00     0.009 A 
HETATM   32  C   UNL     1      15.162  -4.413 -21.116  1.00  0.00    -0.035 A 
HETATM   33  C   UNL     1      15.711  -3.744 -19.886  1.00  0.00     0.050 C 
ENDBRANCH  25  27
ENDBRANCH  22  25
ENDBRANCH  20  22
ENDBRANCH  12  15
ENDBRANCH   2   3
TORSDOF 5
ENDMDL
