MODEL 1
REMARK VINA RESULT:      -6.8      0.000      0.000
REMARK  6 active torsions:
REMARK  status: ('A' for Active; 'I' for Inactive)
REMARK    1  A    between atoms: C_2  and  C_3 
REMARK    2  A    between atoms: C_2  and  N_16 
REMARK       I    between atoms: C_3  and  N_5 
REMARK    3  A    between atoms: N_5  and  C_6 
REMARK    4  A    between atoms: C_9  and  O_14 
REMARK    5  A    between atoms: C_11  and  O_12 
REMARK    6  A    between atoms: C_21  and  C_22 
ROOT
HETATM    1  C   UNL     1      18.212  -7.784 -20.144  1.00  0.00     0.044 C 
HETATM    2  C   UNL     1      16.856  -8.269 -19.626  1.00  0.00     0.199 C 
ENDROOT
BRANCH   2   3
HETATM    3  C   UNL     1      16.294  -7.270 -18.581  1.00  0.00     0.246 C 
HETATM    4  O   UNL     1      15.953  -6.129 -18.891  1.00  0.00    -0.271 OA
HETATM    5  N   UNL     1      16.214  -7.773 -17.283  1.00  0.00    -0.323 N 
HETATM    6  HN  UNL     1      16.283  -8.781 -17.169  1.00  0.00     0.169 HD
BRANCH   5   7
HETATM    7  C   UNL     1      15.783  -7.004 -16.172  1.00  0.00     0.068 A 
HETATM    8  C   UNL     1      14.431  -7.092 -15.789  1.00  0.00     0.035 A 
HETATM    9  C   UNL     1      13.911  -6.302 -14.758  1.00  0.00     0.039 A 
HETATM   10  C   UNL     1      14.731  -5.421 -14.065  1.00  0.00     0.070 A 
HETATM   11  C   UNL     1      16.073  -5.339 -14.425  1.00  0.00     0.075 A 
HETATM   12  C   UNL     1      16.611  -6.104 -15.481  1.00  0.00     0.097 A 
BRANCH  10  13
HETATM   13  O   UNL     1      14.122  -4.699 -13.076  1.00  0.00    -0.356 OA
HETATM   14  C   UNL     1      12.747  -4.377 -13.276  1.00  0.00     0.210 C 
ENDBRANCH  10  13
BRANCH  12  15
HETATM   15  O   UNL     1      17.948  -5.843 -15.611  1.00  0.00    -0.354 OA
HETATM   16  C   UNL     1      18.400  -4.752 -16.381  1.00  0.00     0.210 C 
ENDBRANCH  12  15
ENDBRANCH   5   7
ENDBRANCH   2   3
BRANCH   2  17
HETATM   17  N   UNL     1      15.882  -8.545 -20.704  1.00  0.00    -0.244 N 
HETATM   18  C   UNL     1      15.338  -9.810 -20.794  1.00  0.00     0.262 A 
HETATM   19  O   UNL     1      15.580 -10.720 -19.997  1.00  0.00    -0.267 OA
HETATM   20  C   UNL     1      14.362 -10.043 -21.866  1.00  0.00     0.078 A 
HETATM   21  C   UNL     1      14.073  -9.086 -22.749  1.00  0.00     0.037 A 
HETATM   22  C   UNL     1      14.808  -7.807 -22.612  1.00  0.00     0.058 A 
HETATM   23  N   UNL     1      15.643  -7.554 -21.646  1.00  0.00    -0.294 N 
HETATM   24  HN  UNL     1      16.111  -6.650 -21.583  1.00  0.00     0.187 HD
BRANCH  22  25
HETATM   25  C   UNL     1      14.608  -6.810 -23.712  1.00  0.00    -0.008 A 
HETATM   26  C   UNL     1      14.077  -5.533 -23.480  1.00  0.00     0.014 A 
HETATM   27  C   UNL     1      13.785  -4.686 -24.553  1.00  0.00     0.001 A 
HETATM   28  C   UNL     1      14.037  -5.097 -25.860  1.00  0.00     0.000 A 
HETATM   29  C   UNL     1      14.606  -6.349 -26.095  1.00  0.00     0.001 A 
HETATM   30  C   UNL     1      14.896  -7.201 -25.025  1.00  0.00     0.014 A 
ENDBRANCH  22  25
ENDBRANCH   2  17
TORSDOF 6
ENDMDL
MODEL 2
REMARK VINA RESULT:      -6.8      9.510     12.890
REMARK  6 active torsions:
REMARK  status: ('A' for Active; 'I' for Inactive)
REMARK    1  A    between atoms: C_2  and  C_3 
REMARK    2  A    between atoms: C_2  and  N_16 
REMARK       I    between atoms: C_3  and  N_5 
REMARK    3  A    between atoms: N_5  and  C_6 
REMARK    4  A    between atoms: C_9  and  O_14 
REMARK    5  A    between atoms: C_11  and  O_12 
REMARK    6  A    between atoms: C_21  and  C_22 
ROOT
HETATM    1  C   UNL     1      13.253  -8.906 -28.460  1.00  0.00     0.044 C 
HETATM    2  C   UNL     1      14.733  -8.751 -28.101  1.00  0.00     0.199 C 
ENDROOT
BRANCH   2   3
HETATM    3  C   UNL     1      15.508 -10.046 -28.458  1.00  0.00     0.246 C 
HETATM    4  O   UNL     1      16.719 -10.152 -28.268  1.00  0.00    -0.271 OA
HETATM    5  N   UNL     1      14.721 -11.060 -29.005  1.00  0.00    -0.323 N 
HETATM    6  HN  UNL     1      13.714 -10.977 -28.899  1.00  0.00     0.169 HD
BRANCH   5   7
HETATM    7  C   UNL     1      15.245 -12.300 -29.452  1.00  0.00     0.068 A 
HETATM    8  C   UNL     1      15.152 -13.409 -28.589  1.00  0.00     0.035 A 
HETATM    9  C   UNL     1      15.719 -14.644 -28.923  1.00  0.00     0.039 A 
HETATM   10  C   UNL     1      16.372 -14.812 -30.137  1.00  0.00     0.070 A 
HETATM   11  C   UNL     1      16.456 -13.726 -31.004  1.00  0.00     0.075 A 
HETATM   12  C   UNL     1      15.918 -12.465 -30.674  1.00  0.00     0.097 A 
BRANCH  10  13
HETATM   13  O   UNL     1      16.888 -16.059 -30.362  1.00  0.00    -0.356 OA
HETATM   14  C   UNL     1      16.299 -17.134 -29.635  1.00  0.00     0.210 C 
ENDBRANCH  10  13
BRANCH  12  15
HETATM   15  O   UNL     1      16.124 -11.587 -31.704  1.00  0.00    -0.354 OA
HETATM   16  C   UNL     1      15.703 -11.897 -33.013  1.00  0.00     0.210 C 
ENDBRANCH  12  15
ENDBRANCH   5   7
ENDBRANCH   2   3
BRANCH   2  17
HETATM   17  N   UNL     1      15.357  -7.552 -28.702  1.00  0.00    -0.244 N 
HETATM   18  C   UNL     1      15.487  -6.417 -27.927  1.00  0.00     0.262 A 
HETATM   19  O   UNL     1      15.153  -6.354 -26.741  1.00  0.00    -0.267 OA
HETATM   20  C   UNL     1      16.127  -5.252 -28.550  1.00  0.00     0.078 A 
HETATM   21  C   UNL     1      16.500  -5.279 -29.830  1.00  0.00     0.037 A 
HETATM   22  C   UNL     1      16.206  -6.519 -30.586  1.00  0.00     0.058 A 
HETATM   23  N   UNL     1      15.683  -7.583 -30.050  1.00  0.00    -0.294 N 
HETATM   24  HN  UNL     1      15.516  -8.421 -30.608  1.00  0.00     0.187 HD
BRANCH  22  25
HETATM   25  C   UNL     1      16.466  -6.470 -32.060  1.00  0.00    -0.008 A 
HETATM   26  C   UNL     1      16.619  -5.263 -32.756  1.00  0.00     0.014 A 
HETATM   27  C   UNL     1      16.728  -5.261 -34.150  1.00  0.00     0.001 A 
HETATM   28  C   UNL     1      16.705  -6.463 -34.856  1.00  0.00     0.000 A 
HETATM   29  C   UNL     1      16.598  -7.670 -34.166  1.00  0.00     0.001 A 
HETATM   30  C   UNL     1      16.484  -7.675 -32.773  1.00  0.00     0.014 A 
ENDBRANCH  22  25
ENDBRANCH   2  17
TORSDOF 6
ENDMDL
MODEL 3
REMARK VINA RESULT:      -6.7      6.352      9.832
REMARK  6 active torsions:
REMARK  status: ('A' for Active; 'I' for Inactive)
REMARK    1  A    between atoms: C_2  and  C_3 
REMARK    2  A    between atoms: C_2  and  N_16 
REMARK       I    between atoms: C_3  and  N_5 
REMARK    3  A    between atoms: N_5  and  C_6 
REMARK    4  A    between atoms: C_9  and  O_14 
REMARK    5  A    between atoms: C_11  and  O_12 
REMARK    6  A    between atoms: C_21  and  C_22 
ROOT
HETATM    1  C   UNL     1      11.166   0.066 -18.353  1.00  0.00     0.044 C 
HETATM    2  C   UNL     1      12.152  -0.918 -17.720  1.00  0.00     0.199 C 
ENDROOT
BRANCH   2   3
HETATM    3  C   UNL     1      12.365  -2.138 -18.654  1.00  0.00     0.246 C 
HETATM    4  O   UNL     1      12.490  -3.280 -18.213  1.00  0.00    -0.271 OA
HETATM    5  N   UNL     1      12.403  -1.826 -20.013  1.00  0.00    -0.323 N 
HETATM    6  HN  UNL     1      12.053  -0.914 -20.292  1.00  0.00     0.169 HD
BRANCH   5   7
HETATM    7  C   UNL     1      12.646  -2.787 -21.028  1.00  0.00     0.068 A 
HETATM    8  C   UNL     1      13.976  -3.192 -21.254  1.00  0.00     0.035 A 
HETATM    9  C   UNL     1      14.305  -4.071 -22.292  1.00  0.00     0.039 A 
HETATM   10  C   UNL     1      13.315  -4.589 -23.115  1.00  0.00     0.070 A 
HETATM   11  C   UNL     1      11.995  -4.207 -22.890  1.00  0.00     0.075 A 
HETATM   12  C   UNL     1      11.644  -3.299 -21.870  1.00  0.00     0.097 A 
BRANCH  10  13
HETATM   13  O   UNL     1      13.746  -5.439 -24.096  1.00  0.00    -0.356 OA
HETATM   14  C   UNL     1      13.933  -4.876 -25.392  1.00  0.00     0.210 C 
ENDBRANCH  10  13
BRANCH  12  15
HETATM   15  O   UNL     1      10.289  -3.112 -21.857  1.00  0.00    -0.354 OA
HETATM   16  C   UNL     1       9.475  -3.784 -20.923  1.00  0.00     0.210 C 
ENDBRANCH  12  15
ENDBRANCH   5   7
ENDBRANCH   2   3
BRANCH   2  17
HETATM   17  N   UNL     1      13.434  -0.292 -17.331  1.00  0.00    -0.244 N 
HETATM   18  C   UNL     1      13.936  -0.545 -16.070  1.00  0.00     0.262 A 
HETATM   19  O   UNL     1      13.401  -1.303 -15.257  1.00  0.00    -0.267 OA
HETATM   20  C   UNL     1      15.220   0.079 -15.724  1.00  0.00     0.078 A 
HETATM   21  C   UNL     1      15.830   0.906 -16.574  1.00  0.00     0.037 A 
HETATM   22  C   UNL     1      15.134   1.184 -17.852  1.00  0.00     0.058 A 
HETATM   23  N   UNL     1      14.020   0.611 -18.206  1.00  0.00    -0.294 N 
HETATM   24  HN  UNL     1      13.588   0.820 -19.107  1.00  0.00     0.187 HD
BRANCH  22  25
HETATM   25  C   UNL     1      15.739   2.248 -18.716  1.00  0.00    -0.008 A 
HETATM   26  C   UNL     1      17.096   2.246 -19.068  1.00  0.00     0.014 A 
HETATM   27  C   UNL     1      17.645   3.328 -19.764  1.00  0.00     0.001 A 
HETATM   28  C   UNL     1      16.842   4.407 -20.129  1.00  0.00     0.000 A 
HETATM   29  C   UNL     1      15.481   4.394 -19.820  1.00  0.00     0.001 A 
HETATM   30  C   UNL     1      14.930   3.316 -19.120  1.00  0.00     0.014 A 
ENDBRANCH  22  25
ENDBRANCH   2  17
TORSDOF 6
ENDMDL
MODEL 4
REMARK VINA RESULT:      -6.6      3.535      6.621
REMARK  6 active torsions:
REMARK  status: ('A' for Active; 'I' for Inactive)
REMARK    1  A    between atoms: C_2  and  C_3 
REMARK    2  A    between atoms: C_2  and  N_16 
REMARK       I    between atoms: C_3  and  N_5 
REMARK    3  A    between atoms: N_5  and  C_6 
REMARK    4  A    between atoms: C_9  and  O_14 
REMARK    5  A    between atoms: C_11  and  O_12 
REMARK    6  A    between atoms: C_21  and  C_22 
ROOT
HETATM    1  C   UNL     1      13.276  -5.038 -14.416  1.00  0.00     0.044 C 
HETATM    2  C   UNL     1      14.318  -4.350 -15.299  1.00  0.00     0.199 C 
ENDROOT
BRANCH   2   3
HETATM    3  C   UNL     1      14.990  -5.384 -16.240  1.00  0.00     0.246 C 
HETATM    4  O   UNL     1      15.916  -5.076 -16.989  1.00  0.00    -0.271 OA
HETATM    5  N   UNL     1      14.456  -6.671 -16.160  1.00  0.00    -0.323 N 
HETATM    6  HN  UNL     1      13.874  -6.885 -15.355  1.00  0.00     0.169 HD
BRANCH   5   7
HETATM    7  C   UNL     1      14.888  -7.748 -16.976  1.00  0.00     0.068 A 
HETATM    8  C   UNL     1      14.000  -8.239 -17.951  1.00  0.00     0.035 A 
HETATM    9  C   UNL     1      14.320  -9.352 -18.737  1.00  0.00     0.039 A 
HETATM   10  C   UNL     1      15.545  -9.988 -18.588  1.00  0.00     0.070 A 
HETATM   11  C   UNL     1      16.438  -9.500 -17.638  1.00  0.00     0.075 A 
HETATM   12  C   UNL     1      16.123  -8.399 -16.814  1.00  0.00     0.097 A 
BRANCH  10  13
HETATM   13  O   UNL     1      15.756 -11.063 -19.407  1.00  0.00    -0.356 OA
HETATM   14  C   UNL     1      14.679 -11.432 -20.266  1.00  0.00     0.210 C 
ENDBRANCH  10  13
BRANCH  12  15
HETATM   15  O   UNL     1      17.176  -8.120 -15.986  1.00  0.00    -0.354 OA
HETATM   16  C   UNL     1      17.978  -9.155 -15.463  1.00  0.00     0.210 C 
ENDBRANCH  12  15
ENDBRANCH   5   7
ENDBRANCH   2   3
BRANCH   2  17
HETATM   17  N   UNL     1      13.779  -3.194 -16.048  1.00  0.00    -0.244 N 
HETATM   18  C   UNL     1      13.612  -1.996 -15.382  1.00  0.00     0.262 A 
HETATM   19  O   UNL     1      13.929  -1.815 -14.203  1.00  0.00    -0.267 OA
HETATM   20  C   UNL     1      13.090  -0.866 -16.160  1.00  0.00     0.078 A 
HETATM   21  C   UNL     1      12.733  -1.020 -17.436  1.00  0.00     0.037 A 
HETATM   22  C   UNL     1      12.858  -2.382 -18.005  1.00  0.00     0.058 A 
HETATM   23  N   UNL     1      13.359  -3.392 -17.355  1.00  0.00    -0.294 N 
HETATM   24  HN  UNL     1      13.442  -4.308 -17.796  1.00  0.00     0.187 HD
BRANCH  22  25
HETATM   25  C   UNL     1      12.288  -2.579 -19.376  1.00  0.00    -0.008 A 
HETATM   26  C   UNL     1      10.913  -2.488 -19.638  1.00  0.00     0.014 A 
HETATM   27  C   UNL     1      10.414  -2.809 -20.904  1.00  0.00     0.001 A 
HETATM   28  C   UNL     1      11.282  -3.204 -21.921  1.00  0.00     0.000 A 
HETATM   29  C   UNL     1      12.655  -3.254 -21.679  1.00  0.00     0.001 A 
HETATM   30  C   UNL     1      13.158  -2.938 -20.413  1.00  0.00     0.014 A 
ENDBRANCH  22  25
ENDBRANCH   2  17
TORSDOF 6
ENDMDL
MODEL 5
REMARK VINA RESULT:      -6.5      9.462     12.471
REMARK  6 active torsions:
REMARK  status: ('A' for Active; 'I' for Inactive)
REMARK    1  A    between atoms: C_2  and  C_3 
REMARK    2  A    between atoms: C_2  and  N_16 
REMARK       I    between atoms: C_3  and  N_5 
REMARK    3  A    between atoms: N_5  and  C_6 
REMARK    4  A    between atoms: C_9  and  O_14 
REMARK    5  A    between atoms: C_11  and  O_12 
REMARK    6  A    between atoms: C_21  and  C_22 
ROOT
HETATM    1  C   UNL     1      13.137  -8.801 -28.524  1.00  0.00     0.044 C 
HETATM    2  C   UNL     1      14.589  -8.643 -28.067  1.00  0.00     0.199 C 
ENDROOT
BRANCH   2   3
HETATM    3  C   UNL     1      15.373  -9.959 -28.311  1.00  0.00     0.246 C 
HETATM    4  O   UNL     1      16.593 -10.026 -28.163  1.00  0.00    -0.271 OA
HETATM    5  N   UNL     1      14.584 -11.038 -28.709  1.00  0.00    -0.323 N 
HETATM    6  HN  UNL     1      13.580 -10.958 -28.570  1.00  0.00     0.169 HD
BRANCH   5   7
HETATM    7  C   UNL     1      15.112 -12.313 -29.039  1.00  0.00     0.068 A 
HETATM    8  C   UNL     1      15.587 -12.515 -30.348  1.00  0.00     0.035 A 
HETATM    9  C   UNL     1      16.045 -13.768 -30.774  1.00  0.00     0.039 A 
HETATM   10  C   UNL     1      16.063 -14.844 -29.897  1.00  0.00     0.070 A 
HETATM   11  C   UNL     1      15.610 -14.650 -28.595  1.00  0.00     0.075 A 
HETATM   12  C   UNL     1      15.117 -13.405 -28.154  1.00  0.00     0.097 A 
BRANCH  10  13
HETATM   13  O   UNL     1      16.530 -16.020 -30.415  1.00  0.00    -0.356 OA
HETATM   14  C   UNL     1      16.347 -17.188 -29.617  1.00  0.00     0.210 C 
ENDBRANCH  10  13
BRANCH  12  15
HETATM   15  O   UNL     1      14.755 -13.486 -26.837  1.00  0.00    -0.354 OA
HETATM   16  C   UNL     1      15.075 -14.624 -26.069  1.00  0.00     0.210 C 
ENDBRANCH  12  15
ENDBRANCH   5   7
ENDBRANCH   2   3
BRANCH   2  17
HETATM   17  N   UNL     1      15.268  -7.477 -28.672  1.00  0.00    -0.244 N 
HETATM   18  C   UNL     1      15.442  -6.343 -27.904  1.00  0.00     0.262 A 
HETATM   19  O   UNL     1      15.104  -6.257 -26.721  1.00  0.00    -0.267 OA
HETATM   20  C   UNL     1      16.135  -5.211 -28.531  1.00  0.00     0.078 A 
HETATM   21  C   UNL     1      16.515  -5.263 -29.809  1.00  0.00     0.037 A 
HETATM   22  C   UNL     1      16.172  -6.495 -30.558  1.00  0.00     0.058 A 
HETATM   23  N   UNL     1      15.600  -7.532 -30.018  1.00  0.00    -0.294 N 
HETATM   24  HN  UNL     1      15.401  -8.366 -30.571  1.00  0.00     0.187 HD
BRANCH  22  25
HETATM   25  C   UNL     1      16.443  -6.468 -32.031  1.00  0.00    -0.008 A 
HETATM   26  C   UNL     1      16.627  -5.272 -32.738  1.00  0.00     0.014 A 
HETATM   27  C   UNL     1      16.745  -5.288 -34.132  1.00  0.00     0.001 A 
HETATM   28  C   UNL     1      16.701  -6.496 -34.825  1.00  0.00     0.000 A 
HETATM   29  C   UNL     1      16.563  -7.694 -34.122  1.00  0.00     0.001 A 
HETATM   30  C   UNL     1      16.440  -7.681 -32.730  1.00  0.00     0.014 A 
ENDBRANCH  22  25
ENDBRANCH   2  17
TORSDOF 6
ENDMDL
MODEL 6
REMARK VINA RESULT:      -6.5      5.028      7.933
REMARK  6 active torsions:
REMARK  status: ('A' for Active; 'I' for Inactive)
REMARK    1  A    between atoms: C_2  and  C_3 
REMARK    2  A    between atoms: C_2  and  N_16 
REMARK       I    between atoms: C_3  and  N_5 
REMARK    3  A    between atoms: N_5  and  C_6 
REMARK    4  A    between atoms: C_9  and  O_14 
REMARK    5  A    between atoms: C_11  and  O_12 
REMARK    6  A    between atoms: C_21  and  C_22 
ROOT
HETATM    1  C   UNL     1      15.034  -0.209 -17.828  1.00  0.00     0.044 C 
HETATM    2  C   UNL     1      15.075  -1.689 -17.442  1.00  0.00     0.199 C 
ENDROOT
BRANCH   2   3
HETATM    3  C   UNL     1      13.968  -2.470 -18.196  1.00  0.00     0.246 C 
HETATM    4  O   UNL     1      13.581  -3.575 -17.820  1.00  0.00    -0.271 OA
HETATM    5  N   UNL     1      13.464  -1.817 -19.321  1.00  0.00    -0.323 N 
HETATM    6  HN  UNL     1      13.663  -0.825 -19.413  1.00  0.00     0.169 HD
BRANCH   5   7
HETATM    7  C   UNL     1      12.489  -2.385 -20.182  1.00  0.00     0.068 A 
HETATM    8  C   UNL     1      11.132  -2.226 -19.843  1.00  0.00     0.035 A 
HETATM    9  C   UNL     1      10.117  -2.827 -20.595  1.00  0.00     0.039 A 
HETATM   10  C   UNL     1      10.426  -3.581 -21.719  1.00  0.00     0.070 A 
HETATM   11  C   UNL     1      11.765  -3.730 -22.073  1.00  0.00     0.075 A 
HETATM   12  C   UNL     1      12.805  -3.158 -21.312  1.00  0.00     0.097 A 
BRANCH  10  13
HETATM   13  O   UNL     1       9.358  -4.121 -22.381  1.00  0.00    -0.356 OA
HETATM   14  C   UNL     1       8.085  -3.530 -22.129  1.00  0.00     0.210 C 
ENDBRANCH  10  13
BRANCH  12  15
HETATM   15  O   UNL     1      14.014  -3.443 -21.887  1.00  0.00    -0.354 OA
HETATM   16  C   UNL     1      14.092  -4.239 -23.048  1.00  0.00     0.210 C 
ENDBRANCH  12  15
ENDBRANCH   5   7
ENDBRANCH   2   3
BRANCH   2  17
HETATM   17  N   UNL     1      16.408  -2.304 -17.627  1.00  0.00    -0.244 N 
HETATM   18  C   UNL     1      16.945  -3.039 -16.589  1.00  0.00     0.262 A 
HETATM   19  O   UNL     1      16.360  -3.254 -15.524  1.00  0.00    -0.267 OA
HETATM   20  C   UNL     1      18.261  -3.650 -16.814  1.00  0.00     0.078 A 
HETATM   21  C   UNL     1      18.928  -3.441 -17.950  1.00  0.00     0.037 A 
HETATM   22  C   UNL     1      18.292  -2.543 -18.942  1.00  0.00     0.058 A 
HETATM   23  N   UNL     1      17.108  -2.025 -18.792  1.00  0.00    -0.294 N 
HETATM   24  HN  UNL     1      16.703  -1.427 -19.513  1.00  0.00     0.187 HD
BRANCH  22  25
HETATM   25  C   UNL     1      19.127  -2.175 -20.130  1.00  0.00    -0.008 A 
HETATM   26  C   UNL     1      20.435  -2.649 -20.303  1.00  0.00     0.014 A 
HETATM   27  C   UNL     1      21.223  -2.175 -21.357  1.00  0.00     0.001 A 
HETATM   28  C   UNL     1      20.706  -1.242 -22.255  1.00  0.00     0.000 A 
HETATM   29  C   UNL     1      19.390  -0.801 -22.114  1.00  0.00     0.001 A 
HETATM   30  C   UNL     1      18.601  -1.269 -21.059  1.00  0.00     0.014 A 
ENDBRANCH  22  25
ENDBRANCH   2  17
TORSDOF 6
ENDMDL
MODEL 7
REMARK VINA RESULT:      -6.5      6.182      9.578
REMARK  6 active torsions:
REMARK  status: ('A' for Active; 'I' for Inactive)
REMARK    1  A    between atoms: C_2  and  C_3 
REMARK    2  A    between atoms: C_2  and  N_16 
REMARK       I    between atoms: C_3  and  N_5 
REMARK    3  A    between atoms: N_5  and  C_6 
REMARK    4  A    between atoms: C_9  and  O_14 
REMARK    5  A    between atoms: C_11  and  O_12 
REMARK    6  A    between atoms: C_21  and  C_22 
ROOT
HETATM    1  C   UNL     1      11.122   0.038 -18.218  1.00  0.00     0.044 C 
HETATM    2  C   UNL     1      12.135  -0.973 -17.677  1.00  0.00     0.199 C 
ENDROOT
BRANCH   2   3
HETATM    3  C   UNL     1      12.337  -2.125 -18.695  1.00  0.00     0.246 C 
HETATM    4  O   UNL     1      12.540  -3.284 -18.334  1.00  0.00    -0.271 OA
HETATM    5  N   UNL     1      12.273  -1.734 -20.032  1.00  0.00    -0.323 N 
HETATM    6  HN  UNL     1      11.866  -0.824 -20.233  1.00  0.00     0.169 HD
BRANCH   5   7
HETATM    7  C   UNL     1      12.489  -2.622 -21.118  1.00  0.00     0.068 A 
HETATM    8  C   UNL     1      11.383  -2.979 -21.912  1.00  0.00     0.035 A 
HETATM    9  C   UNL     1      11.499  -3.913 -22.947  1.00  0.00     0.039 A 
HETATM   10  C   UNL     1      12.726  -4.497 -23.233  1.00  0.00     0.070 A 
HETATM   11  C   UNL     1      13.829  -4.139 -22.463  1.00  0.00     0.075 A 
HETATM   12  C   UNL     1      13.729  -3.222 -21.396  1.00  0.00     0.097 A 
BRANCH  10  13
HETATM   13  O   UNL     1      12.727  -5.395 -24.265  1.00  0.00    -0.356 OA
HETATM   14  C   UNL     1      13.116  -4.898 -25.543  1.00  0.00     0.210 C 
ENDBRANCH  10  13
BRANCH  12  15
HETATM   15  O   UNL     1      14.957  -3.038 -20.822  1.00  0.00    -0.354 OA
HETATM   16  C   UNL     1      15.717  -4.137 -20.373  1.00  0.00     0.210 C 
ENDBRANCH  12  15
ENDBRANCH   5   7
ENDBRANCH   2   3
BRANCH   2  17
HETATM   17  N   UNL     1      13.420  -0.357 -17.279  1.00  0.00    -0.244 N 
HETATM   18  C   UNL     1      13.908  -0.608 -16.013  1.00  0.00     0.262 A 
HETATM   19  O   UNL     1      13.358  -1.357 -15.200  1.00  0.00    -0.267 OA
HETATM   20  C   UNL     1      15.194   0.005 -15.658  1.00  0.00     0.078 A 
HETATM   21  C   UNL     1      15.820   0.822 -16.507  1.00  0.00     0.037 A 
HETATM   22  C   UNL     1      15.138   1.099 -17.793  1.00  0.00     0.058 A 
HETATM   23  N   UNL     1      14.023   0.535 -18.154  1.00  0.00    -0.294 N 
HETATM   24  HN  UNL     1      13.601   0.743 -19.059  1.00  0.00     0.187 HD
BRANCH  22  25
HETATM   25  C   UNL     1      15.762   2.152 -18.656  1.00  0.00    -0.008 A 
HETATM   26  C   UNL     1      17.126   2.148 -18.979  1.00  0.00     0.014 A 
HETATM   27  C   UNL     1      17.690   3.221 -19.676  1.00  0.00     0.001 A 
HETATM   28  C   UNL     1      16.894   4.294 -20.073  1.00  0.00     0.000 A 
HETATM   29  C   UNL     1      15.527   4.284 -19.794  1.00  0.00     0.001 A 
HETATM   30  C   UNL     1      14.961   3.215 -19.093  1.00  0.00     0.014 A 
ENDBRANCH  22  25
ENDBRANCH   2  17
TORSDOF 6
ENDMDL
MODEL 8
REMARK VINA RESULT:      -6.5      4.701      8.398
REMARK  6 active torsions:
REMARK  status: ('A' for Active; 'I' for Inactive)
REMARK    1  A    between atoms: C_2  and  C_3 
REMARK    2  A    between atoms: C_2  and  N_16 
REMARK       I    between atoms: C_3  and  N_5 
REMARK    3  A    between atoms: N_5  and  C_6 
REMARK    4  A    between atoms: C_9  and  O_14 
REMARK    5  A    between atoms: C_11  and  O_12 
REMARK    6  A    between atoms: C_21  and  C_22 
ROOT
HETATM    1  C   UNL     1      15.000  -0.522 -17.757  1.00  0.00     0.044 C 
HETATM    2  C   UNL     1      15.411  -1.982 -17.553  1.00  0.00     0.199 C 
ENDROOT
BRANCH   2   3
HETATM    3  C   UNL     1      14.684  -2.891 -18.579  1.00  0.00     0.246 C 
HETATM    4  O   UNL     1      14.396  -4.059 -18.323  1.00  0.00    -0.271 OA
HETATM    5  N   UNL     1      14.395  -2.273 -19.796  1.00  0.00    -0.323 N 
HETATM    6  HN  UNL     1      14.447  -1.259 -19.829  1.00  0.00     0.169 HD
BRANCH   5   7
HETATM    7  C   UNL     1      13.787  -2.945 -20.888  1.00  0.00     0.068 A 
HETATM    8  C   UNL     1      14.625  -3.567 -21.833  1.00  0.00     0.035 A 
HETATM    9  C   UNL     1      14.105  -4.177 -22.981  1.00  0.00     0.039 A 
HETATM   10  C   UNL     1      12.735  -4.204 -23.203  1.00  0.00     0.070 A 
HETATM   11  C   UNL     1      11.897  -3.606 -22.266  1.00  0.00     0.075 A 
HETATM   12  C   UNL     1      12.401  -2.960 -21.118  1.00  0.00     0.097 A 
BRANCH  10  13
HETATM   13  O   UNL     1      12.335  -4.826 -24.353  1.00  0.00    -0.356 OA
HETATM   14  C   UNL     1      13.186  -4.678 -25.488  1.00  0.00     0.210 C 
ENDBRANCH  10  13
BRANCH  12  15
HETATM   15  O   UNL     1      11.368  -2.476 -20.363  1.00  0.00    -0.354 OA
HETATM   16  C   UNL     1      10.075  -3.029 -20.468  1.00  0.00     0.210 C 
ENDBRANCH  12  15
ENDBRANCH   5   7
ENDBRANCH   2   3
BRANCH   2  17
HETATM   17  N   UNL     1      16.876  -2.185 -17.578  1.00  0.00    -0.244 N 
HETATM   18  C   UNL     1      17.539  -2.350 -16.379  1.00  0.00     0.262 A 
HETATM   19  O   UNL     1      16.976  -2.383 -15.281  1.00  0.00    -0.267 OA
HETATM   20  C   UNL     1      18.990  -2.567 -16.442  1.00  0.00     0.078 A 
HETATM   21  C   UNL     1      19.637  -2.536 -17.609  1.00  0.00     0.037 A 
HETATM   22  C   UNL     1      18.827  -2.240 -18.814  1.00  0.00     0.058 A 
HETATM   23  N   UNL     1      17.534  -2.090 -18.796  1.00  0.00    -0.294 N 
HETATM   24  HN  UNL     1      17.017  -1.907 -19.656  1.00  0.00     0.187 HD
BRANCH  22  25
HETATM   25  C   UNL     1      19.590  -2.032 -20.086  1.00  0.00    -0.008 A 
HETATM   26  C   UNL     1      20.901  -2.497 -20.259  1.00  0.00     0.014 A 
HETATM   27  C   UNL     1      21.620  -2.165 -21.412  1.00  0.00     0.001 A 
HETATM   28  C   UNL     1      21.030  -1.386 -22.406  1.00  0.00     0.000 A 
HETATM   29  C   UNL     1      19.710  -0.958 -22.259  1.00  0.00     0.001 A 
HETATM   30  C   UNL     1      18.990  -1.284 -21.106  1.00  0.00     0.014 A 
ENDBRANCH  22  25
ENDBRANCH   2  17
TORSDOF 6
ENDMDL
MODEL 9
REMARK VINA RESULT:      -6.5      3.766      8.974
REMARK  6 active torsions:
REMARK  status: ('A' for Active; 'I' for Inactive)
REMARK    1  A    between atoms: C_2  and  C_3 
REMARK    2  A    between atoms: C_2  and  N_16 
REMARK       I    between atoms: C_3  and  N_5 
REMARK    3  A    between atoms: N_5  and  C_6 
REMARK    4  A    between atoms: C_9  and  O_14 
REMARK    5  A    between atoms: C_11  and  O_12 
REMARK    6  A    between atoms: C_21  and  C_22 
ROOT
HETATM    1  C   UNL     1      14.727  -1.081 -18.203  1.00  0.00     0.044 C 
HETATM    2  C   UNL     1      13.568  -1.961 -17.730  1.00  0.00     0.199 C 
ENDROOT
BRANCH   2   3
HETATM    3  C   UNL     1      13.077  -2.868 -18.888  1.00  0.00     0.246 C 
HETATM    4  O   UNL     1      12.434  -3.897 -18.681  1.00  0.00    -0.271 OA
HETATM    5  N   UNL     1      13.427  -2.420 -20.162  1.00  0.00    -0.323 N 
HETATM    6  HN  UNL     1      13.737  -1.456 -20.248  1.00  0.00     0.169 HD
BRANCH   5   7
HETATM    7  C   UNL     1      13.126  -3.133 -21.351  1.00  0.00     0.068 A 
HETATM    8  C   UNL     1      14.191  -3.714 -22.064  1.00  0.00     0.035 A 
HETATM    9  C   UNL     1      13.985  -4.360 -23.288  1.00  0.00     0.039 A 
HETATM   10  C   UNL     1      12.707  -4.466 -23.820  1.00  0.00     0.070 A 
HETATM   11  C   UNL     1      11.644  -3.909 -23.115  1.00  0.00     0.075 A 
HETATM   12  C   UNL     1      11.833  -3.227 -21.895  1.00  0.00     0.097 A 
BRANCH  10  13
HETATM   13  O   UNL     1      12.618  -5.118 -25.019  1.00  0.00    -0.356 OA
HETATM   14  C   UNL     1      13.620  -4.813 -25.987  1.00  0.00     0.210 C 
ENDBRANCH  10  13
BRANCH  12  15
HETATM   15  O   UNL     1      10.629  -2.797 -21.409  1.00  0.00    -0.354 OA
HETATM   16  C   UNL     1       9.633  -3.718 -21.026  1.00  0.00     0.210 C 
ENDBRANCH  12  15
ENDBRANCH   5   7
ENDBRANCH   2   3
BRANCH   2  17
HETATM   17  N   UNL     1      13.886  -2.743 -16.515  1.00  0.00    -0.244 N 
HETATM   18  C   UNL     1      13.722  -2.143 -15.282  1.00  0.00     0.262 A 
HETATM   19  O   UNL     1      13.280  -1.001 -15.128  1.00  0.00    -0.267 OA
HETATM   20  C   UNL     1      14.031  -2.954 -14.098  1.00  0.00     0.078 A 
HETATM   21  C   UNL     1      14.512  -4.192 -14.222  1.00  0.00     0.037 A 
HETATM   22  C   UNL     1      14.747  -4.681 -15.600  1.00  0.00     0.058 A 
HETATM   23  N   UNL     1      14.441  -4.005 -16.669  1.00  0.00    -0.294 N 
HETATM   24  HN  UNL     1      14.605  -4.393 -17.598  1.00  0.00     0.187 HD
BRANCH  22  25
HETATM   25  C   UNL     1      15.453  -5.998 -15.721  1.00  0.00    -0.008 A 
HETATM   26  C   UNL     1      16.723  -6.222 -15.171  1.00  0.00     0.014 A 
HETATM   27  C   UNL     1      17.398  -7.420 -15.421  1.00  0.00     0.001 A 
HETATM   28  C   UNL     1      16.804  -8.409 -16.204  1.00  0.00     0.000 A 
HETATM   29  C   UNL     1      15.522  -8.210 -16.717  1.00  0.00     0.001 A 
HETATM   30  C   UNL     1      14.846  -7.011 -16.473  1.00  0.00     0.014 A 
ENDBRANCH  22  25
ENDBRANCH   2  17
TORSDOF 6
ENDMDL
