MODEL 1
REMARK VINA RESULT:      -7.4      0.000      0.000
REMARK  6 active torsions:
REMARK  status: ('A' for Active; 'I' for Inactive)
REMARK    1  A    between atoms: C_2  and  C_3 
REMARK    2  A    between atoms: C_6  and  C_22 
REMARK    3  A    between atoms: C_8  and  S_9 
REMARK    4  A    between atoms: S_9  and  N_12 
REMARK    5  A    between atoms: N_12  and  C_13 
REMARK    6  A    between atoms: C_16  and  C_19 
REMARK       I    between atoms: C_19  and  N_21 
ROOT
HETATM    1  C   UNL     1      14.743  -6.252 -22.675  1.00  0.00     0.010 C 
HETATM    2  C   UNL     1      13.849  -5.026 -22.827  1.00  0.00     0.035 C 
ENDROOT
BRANCH   2   3
HETATM    3  C   UNL     1      14.000  -4.070 -21.668  1.00  0.00    -0.035 C 
HETATM    4  C   UNL     1      15.295  -3.624 -21.342  1.00  0.00     0.009 C 
HETATM    5  C   UNL     1      15.523  -2.732 -20.280  1.00  0.00     0.014 C 
HETATM    6  C   UNL     1      14.458  -2.191 -19.551  1.00  0.00    -0.006 C 
HETATM    7  C   UNL     1      13.173  -2.538 -19.964  1.00  0.00     0.039 C 
HETATM    8  C   UNL     1      12.936  -3.546 -20.920  1.00  0.00     0.086 C 
BRANCH   6   9
HETATM    9  C   UNL     1      14.744  -1.279 -18.372  1.00  0.00     0.065 A 
HETATM   10  C   UNL     1      14.968  -1.843 -16.988  1.00  0.00    -0.017 A 
HETATM   11  C   UNL     1      14.991  -3.320 -16.680  1.00  0.00     0.042 C 
HETATM   12  C   UNL     1      15.198  -0.950 -16.005  1.00  0.00     0.020 A 
HETATM   13  C   UNL     1      15.538  -3.701 -15.304  1.00  0.00     0.005 C 
HETATM   14  C   UNL     1      14.976  -2.761 -14.251  1.00  0.00     0.005 C 
HETATM   15  C   UNL     1      15.405  -1.329 -14.561  1.00  0.00     0.045 C 
HETATM   16  C   UNL     1      15.285   0.505 -16.294  1.00  0.00     0.268 A 
HETATM   17  O   UNL     1      15.529   1.292 -15.382  1.00  0.00    -0.266 OA
HETATM   18  N   UNL     1      15.099   0.874 -17.614  1.00  0.00    -0.261 N 
HETATM   19  C   UNL     1      15.213   2.273 -17.988  1.00  0.00     0.181 C 
HETATM   20  N   UNL     1      14.823  -0.003 -18.632  1.00  0.00    -0.295 N 
HETATM   21  HN  UNL     1      14.681   0.338 -19.582  1.00  0.00     0.187 HD
ENDBRANCH   6   9
BRANCH   8  22
HETATM   22  S   UNL     1      11.241  -4.130 -21.010  1.00  0.00     0.263 S 
HETATM   23  O   UNL     1      10.485  -3.419 -19.998  1.00  0.00    -0.200 OA
HETATM   24  O   UNL     1      10.773  -4.156 -22.375  1.00  0.00    -0.200 OA
BRANCH  22  25
HETATM   25  N   UNL     1      11.374  -5.723 -20.420  1.00  0.00    -0.281 N 
HETATM   26  HN  UNL     1      11.425  -6.397 -21.183  1.00  0.00     0.179 HD
BRANCH  25  27
HETATM   27  C   UNL     1      12.181  -5.958 -19.273  1.00  0.00     0.042 A 
HETATM   28  C   UNL     1      13.350  -6.699 -19.417  1.00  0.00     0.031 A 
HETATM   29  C   UNL     1      14.086  -7.062 -18.286  1.00  0.00     0.019 A 
HETATM   30  C   UNL     1      13.658  -6.686 -17.005  1.00  0.00     0.032 A 
HETATM   31  C   UNL     1      12.529  -5.863 -16.880  1.00  0.00     0.019 A 
HETATM   32  C   UNL     1      11.792  -5.501 -18.016  1.00  0.00     0.031 A 
BRANCH  30  33
HETATM   33  C   UNL     1      14.404  -7.244 -15.838  1.00  0.00     0.249 C 
HETATM   34  O   UNL     1      15.336  -8.025 -15.994  1.00  0.00    -0.268 OA
HETATM   35  N   UNL     1      14.000  -6.912 -14.576  1.00  0.00    -0.366 N 
HETATM   36  HN1 UNL     1      13.195  -6.354 -14.348  1.00  0.00     0.159 HD
HETATM   37  HN2 UNL     1      14.470  -7.391 -13.816  1.00  0.00     0.159 HD
ENDBRANCH  30  33
ENDBRANCH  25  27
ENDBRANCH  22  25
ENDBRANCH   8  22
ENDBRANCH   2   3
TORSDOF 6
ENDMDL
MODEL 2
REMARK VINA RESULT:      -7.2      2.435      3.091
REMARK  6 active torsions:
REMARK  status: ('A' for Active; 'I' for Inactive)
REMARK    1  A    between atoms: C_2  and  C_3 
REMARK    2  A    between atoms: C_6  and  C_22 
REMARK    3  A    between atoms: C_8  and  S_9 
REMARK    4  A    between atoms: S_9  and  N_12 
REMARK    5  A    between atoms: N_12  and  C_13 
REMARK    6  A    between atoms: C_16  and  C_19 
REMARK       I    between atoms: C_19  and  N_21 
ROOT
HETATM    1  C   UNL     1       9.166  -3.784 -21.945  1.00  0.00     0.010 C 
HETATM    2  C   UNL     1      10.636  -3.707 -22.340  1.00  0.00     0.035 C 
ENDROOT
BRANCH   2   3
HETATM    3  C   UNL     1      11.472  -3.035 -21.276  1.00  0.00    -0.035 C 
HETATM    4  C   UNL     1      10.885  -1.995 -20.532  1.00  0.00     0.009 C 
HETATM    5  C   UNL     1      11.593  -1.319 -19.522  1.00  0.00     0.014 C 
HETATM    6  C   UNL     1      12.890  -1.709 -19.167  1.00  0.00    -0.006 C 
HETATM    7  C   UNL     1      13.414  -2.821 -19.821  1.00  0.00     0.039 C 
HETATM    8  C   UNL     1      12.781  -3.407 -20.935  1.00  0.00     0.086 C 
BRANCH   6   9
HETATM    9  C   UNL     1      13.646  -0.918 -18.115  1.00  0.00     0.065 A 
HETATM   10  C   UNL     1      13.920  -1.503 -16.749  1.00  0.00    -0.017 A 
HETATM   11  C   UNL     1      13.536  -2.905 -16.347  1.00  0.00     0.042 C 
HETATM   12  C   UNL     1      14.584  -0.715 -15.879  1.00  0.00     0.020 A 
HETATM   13  C   UNL     1      14.167  -3.420 -15.053  1.00  0.00     0.005 C 
HETATM   14  C   UNL     1      14.117  -2.334 -13.992  1.00  0.00     0.005 C 
HETATM   15  C   UNL     1      14.910  -1.119 -14.464  1.00  0.00     0.045 C 
HETATM   16  C   UNL     1      15.067   0.632 -16.279  1.00  0.00     0.268 A 
HETATM   17  O   UNL     1      15.698   1.314 -15.474  1.00  0.00    -0.266 OA
HETATM   18  N   UNL     1      14.779   1.022 -17.574  1.00  0.00    -0.261 N 
HETATM   19  C   UNL     1      15.256   2.306 -18.058  1.00  0.00     0.181 C 
HETATM   20  N   UNL     1      14.071   0.262 -18.472  1.00  0.00    -0.295 N 
HETATM   21  HN  UNL     1      13.880   0.617 -19.408  1.00  0.00     0.187 HD
ENDBRANCH   6   9
BRANCH   8  22
HETATM   22  S   UNL     1      13.797  -4.543 -21.882  1.00  0.00     0.263 S 
HETATM   23  O   UNL     1      13.335  -5.886 -21.586  1.00  0.00    -0.200 OA
HETATM   24  O   UNL     1      13.921  -4.110 -23.254  1.00  0.00    -0.200 OA
BRANCH  22  25
HETATM   25  N   UNL     1      15.307  -4.417 -21.103  1.00  0.00    -0.281 N 
HETATM   26  HN  UNL     1      15.421  -3.504 -20.664  1.00  0.00     0.179 HD
BRANCH  25  27
HETATM   27  C   UNL     1      15.812  -5.552 -20.412  1.00  0.00     0.042 A 
HETATM   28  C   UNL     1      16.429  -6.563 -21.143  1.00  0.00     0.031 A 
HETATM   29  C   UNL     1      16.806  -7.748 -20.508  1.00  0.00     0.019 A 
HETATM   30  C   UNL     1      16.570  -7.931 -19.138  1.00  0.00     0.032 A 
HETATM   31  C   UNL     1      16.031  -6.872 -18.394  1.00  0.00     0.019 A 
HETATM   32  C   UNL     1      15.652  -5.683 -19.034  1.00  0.00     0.031 A 
BRANCH  30  33
HETATM   33  C   UNL     1      16.852  -9.280 -18.565  1.00  0.00     0.249 C 
HETATM   34  O   UNL     1      15.946 -10.070 -18.321  1.00  0.00    -0.268 OA
HETATM   35  N   UNL     1      18.142  -9.613 -18.262  1.00  0.00    -0.366 N 
HETATM   36  HN1 UNL     1      18.937  -9.001 -18.340  1.00  0.00     0.159 HD
HETATM   37  HN2 UNL     1      18.275 -10.496 -17.784  1.00  0.00     0.159 HD
ENDBRANCH  30  33
ENDBRANCH  25  27
ENDBRANCH  22  25
ENDBRANCH   8  22
ENDBRANCH   2   3
TORSDOF 6
ENDMDL
MODEL 3
REMARK VINA RESULT:      -7.1      2.825      3.924
REMARK  6 active torsions:
REMARK  status: ('A' for Active; 'I' for Inactive)
REMARK    1  A    between atoms: C_2  and  C_3 
REMARK    2  A    between atoms: C_6  and  C_22 
REMARK    3  A    between atoms: C_8  and  S_9 
REMARK    4  A    between atoms: S_9  and  N_12 
REMARK    5  A    between atoms: N_12  and  C_13 
REMARK    6  A    between atoms: C_16  and  C_19 
REMARK       I    between atoms: C_19  and  N_21 
ROOT
HETATM    1  C   UNL     1      14.886  -6.956 -23.539  1.00  0.00     0.010 C 
HETATM    2  C   UNL     1      15.248  -7.618 -22.215  1.00  0.00     0.035 C 
ENDROOT
BRANCH   2   3
HETATM    3  C   UNL     1      14.928  -6.733 -21.034  1.00  0.00    -0.035 C 
HETATM    4  C   UNL     1      15.800  -5.665 -20.752  1.00  0.00     0.009 C 
HETATM    5  C   UNL     1      15.573  -4.792 -19.673  1.00  0.00     0.014 C 
HETATM    6  C   UNL     1      14.425  -4.908 -18.881  1.00  0.00    -0.006 C 
HETATM    7  C   UNL     1      13.505  -5.888 -19.247  1.00  0.00     0.039 C 
HETATM    8  C   UNL     1      13.791  -6.862 -20.223  1.00  0.00     0.086 C 
BRANCH   6   9
HETATM    9  C   UNL     1      14.244  -3.988 -17.687  1.00  0.00     0.065 A 
HETATM   10  C   UNL     1      13.384  -2.750 -17.783  1.00  0.00    -0.017 A 
HETATM   11  C   UNL     1      12.601  -2.367 -19.014  1.00  0.00     0.042 C 
HETATM   12  C   UNL     1      13.301  -1.988 -16.673  1.00  0.00     0.020 A 
HETATM   13  C   UNL     1      11.555  -1.269 -18.821  1.00  0.00     0.005 C 
HETATM   14  C   UNL     1      12.137  -0.153 -17.970  1.00  0.00     0.005 C 
HETATM   15  C   UNL     1      12.520  -0.700 -16.598  1.00  0.00     0.045 C 
HETATM   16  C   UNL     1      13.976  -2.392 -15.413  1.00  0.00     0.268 A 
HETATM   17  O   UNL     1      13.854  -1.693 -14.409  1.00  0.00    -0.266 OA
HETATM   18  N   UNL     1      14.697  -3.571 -15.460  1.00  0.00    -0.261 N 
HETATM   19  C   UNL     1      15.349  -4.059 -14.258  1.00  0.00     0.181 C 
HETATM   20  N   UNL     1      14.836  -4.348 -16.582  1.00  0.00    -0.295 N 
HETATM   21  HN  UNL     1      15.396  -5.200 -16.552  1.00  0.00     0.187 HD
ENDBRANCH   6   9
BRANCH   8  22
HETATM   22  S   UNL     1      12.669  -8.263 -20.256  1.00  0.00     0.263 S 
HETATM   23  O   UNL     1      11.578  -7.964 -19.349  1.00  0.00    -0.200 OA
HETATM   24  O   UNL     1      12.388  -8.671 -21.613  1.00  0.00    -0.200 OA
BRANCH  22  25
HETATM   25  N   UNL     1      13.575  -9.474 -19.470  1.00  0.00    -0.281 N 
HETATM   26  HN  UNL     1      13.815 -10.230 -20.110  1.00  0.00     0.179 HD
BRANCH  25  27
HETATM   27  C   UNL     1      14.550  -9.079 -18.514  1.00  0.00     0.042 A 
HETATM   28  C   UNL     1      14.124  -8.581 -17.287  1.00  0.00     0.031 A 
HETATM   29  C   UNL     1      15.056  -8.057 -16.388  1.00  0.00     0.019 A 
HETATM   30  C   UNL     1      16.421  -8.028 -16.710  1.00  0.00     0.032 A 
HETATM   31  C   UNL     1      16.848  -8.614 -17.910  1.00  0.00     0.019 A 
HETATM   32  C   UNL     1      15.910  -9.139 -18.811  1.00  0.00     0.031 A 
BRANCH  30  33
HETATM   33  C   UNL     1      17.334  -7.309 -15.773  1.00  0.00     0.249 C 
HETATM   34  O   UNL     1      17.471  -6.092 -15.827  1.00  0.00    -0.268 OA
HETATM   35  N   UNL     1      18.064  -8.036 -14.875  1.00  0.00    -0.366 N 
HETATM   36  HN1 UNL     1      18.086  -9.040 -14.817  1.00  0.00     0.159 HD
HETATM   37  HN2 UNL     1      18.743  -7.519 -14.329  1.00  0.00     0.159 HD
ENDBRANCH  30  33
ENDBRANCH  25  27
ENDBRANCH  22  25
ENDBRANCH   8  22
ENDBRANCH   2   3
TORSDOF 6
ENDMDL
MODEL 4
REMARK VINA RESULT:      -7.1      5.512      9.464
REMARK  6 active torsions:
REMARK  status: ('A' for Active; 'I' for Inactive)
REMARK    1  A    between atoms: C_2  and  C_3 
REMARK    2  A    between atoms: C_6  and  C_22 
REMARK    3  A    between atoms: C_8  and  S_9 
REMARK    4  A    between atoms: S_9  and  N_12 
REMARK    5  A    between atoms: N_12  and  C_13 
REMARK    6  A    between atoms: C_16  and  C_19 
REMARK       I    between atoms: C_19  and  N_21 
ROOT
HETATM    1  C   UNL     1      11.281  -3.340 -22.989  1.00  0.00     0.010 C 
HETATM    2  C   UNL     1      12.705  -3.698 -22.581  1.00  0.00     0.035 C 
ENDROOT
BRANCH   2   3
HETATM    3  C   UNL     1      13.328  -4.699 -23.524  1.00  0.00    -0.035 C 
HETATM    4  C   UNL     1      13.281  -4.426 -24.904  1.00  0.00     0.009 C 
HETATM    5  C   UNL     1      13.838  -5.305 -25.850  1.00  0.00     0.014 C 
HETATM    6  C   UNL     1      14.532  -6.452 -25.447  1.00  0.00    -0.006 C 
HETATM    7  C   UNL     1      14.684  -6.646 -24.076  1.00  0.00     0.039 C 
HETATM    8  C   UNL     1      14.002  -5.862 -23.125  1.00  0.00     0.086 C 
BRANCH   6   9
HETATM    9  C   UNL     1      15.068  -7.409 -26.497  1.00  0.00     0.065 A 
HETATM   10  C   UNL     1      15.619  -6.898 -27.807  1.00  0.00    -0.017 A 
HETATM   11  C   UNL     1      15.742  -5.433 -28.149  1.00  0.00     0.042 C 
HETATM   12  C   UNL     1      16.054  -7.828 -28.681  1.00  0.00     0.020 A 
HETATM   13  C   UNL     1      16.602  -5.108 -29.371  1.00  0.00     0.005 C 
HETATM   14  C   UNL     1      16.282  -6.079 -30.495  1.00  0.00     0.005 C 
HETATM   15  C   UNL     1      16.599  -7.503 -30.048  1.00  0.00     0.045 C 
HETATM   16  C   UNL     1      16.042  -9.272 -28.332  1.00  0.00     0.268 A 
HETATM   17  O   UNL     1      16.477 -10.094 -29.137  1.00  0.00    -0.266 OA
HETATM   18  N   UNL     1      15.546  -9.592 -27.082  1.00  0.00    -0.261 N 
HETATM   19  C   UNL     1      15.543 -10.978 -26.646  1.00  0.00     0.181 C 
HETATM   20  N   UNL     1      15.059  -8.675 -26.185  1.00  0.00    -0.295 N 
HETATM   21  HN  UNL     1      14.692  -8.981 -25.284  1.00  0.00     0.187 HD
ENDBRANCH   6   9
BRANCH   8  22
HETATM   22  S   UNL     1      13.999  -6.520 -21.454  1.00  0.00     0.263 S 
HETATM   23  O   UNL     1      14.728  -5.583 -20.621  1.00  0.00    -0.200 OA
HETATM   24  O   UNL     1      12.676  -6.950 -21.068  1.00  0.00    -0.200 OA
BRANCH  22  25
HETATM   25  N   UNL     1      15.024  -7.874 -21.594  1.00  0.00    -0.281 N 
HETATM   26  HN  UNL     1      15.575  -7.833 -22.450  1.00  0.00     0.179 HD
BRANCH  25  27
HETATM   27  C   UNL     1      15.657  -8.369 -20.422  1.00  0.00     0.042 A 
HETATM   28  C   UNL     1      17.008  -8.097 -20.222  1.00  0.00     0.031 A 
HETATM   29  C   UNL     1      17.685  -8.689 -19.154  1.00  0.00     0.019 A 
HETATM   30  C   UNL     1      17.017  -9.556 -18.277  1.00  0.00     0.032 A 
HETATM   31  C   UNL     1      15.637  -9.751 -18.434  1.00  0.00     0.019 A 
HETATM   32  C   UNL     1      14.960  -9.157 -19.508  1.00  0.00     0.031 A 
BRANCH  30  33
HETATM   33  C   UNL     1      17.840 -10.274 -17.259  1.00  0.00     0.249 C 
HETATM   34  O   UNL     1      18.100  -9.763 -16.175  1.00  0.00    -0.268 OA
HETATM   35  N   UNL     1      18.351 -11.503 -17.570  1.00  0.00    -0.366 N 
HETATM   36  HN1 UNL     1      18.268 -11.961 -18.461  1.00  0.00     0.159 HD
HETATM   37  HN2 UNL     1      18.984 -11.908 -16.891  1.00  0.00     0.159 HD
ENDBRANCH  30  33
ENDBRANCH  25  27
ENDBRANCH  22  25
ENDBRANCH   8  22
ENDBRANCH   2   3
TORSDOF 6
ENDMDL
MODEL 5
REMARK VINA RESULT:      -7.0      2.969      6.614
REMARK  6 active torsions:
REMARK  status: ('A' for Active; 'I' for Inactive)
REMARK    1  A    between atoms: C_2  and  C_3 
REMARK    2  A    between atoms: C_6  and  C_22 
REMARK    3  A    between atoms: C_8  and  S_9 
REMARK    4  A    between atoms: S_9  and  N_12 
REMARK    5  A    between atoms: N_12  and  C_13 
REMARK    6  A    between atoms: C_16  and  C_19 
REMARK       I    between atoms: C_19  and  N_21 
ROOT
HETATM    1  C   UNL     1      11.247   1.046 -18.651  1.00  0.00     0.010 C 
HETATM    2  C   UNL     1      11.748   0.124 -17.545  1.00  0.00     0.035 C 
ENDROOT
BRANCH   2   3
HETATM    3  C   UNL     1      12.530  -1.045 -18.096  1.00  0.00    -0.035 C 
HETATM    4  C   UNL     1      11.813  -2.185 -18.508  1.00  0.00     0.009 C 
HETATM    5  C   UNL     1      12.463  -3.316 -19.033  1.00  0.00     0.014 C 
HETATM    6  C   UNL     1      13.848  -3.321 -19.238  1.00  0.00    -0.006 C 
HETATM    7  C   UNL     1      14.531  -2.142 -18.946  1.00  0.00     0.039 C 
HETATM    8  C   UNL     1      13.920  -1.063 -18.278  1.00  0.00     0.086 C 
BRANCH   6   9
HETATM    9  C   UNL     1      14.523  -4.580 -19.749  1.00  0.00     0.065 A 
HETATM   10  C   UNL     1      14.462  -4.957 -21.211  1.00  0.00    -0.017 A 
HETATM   11  C   UNL     1      13.801  -4.107 -22.268  1.00  0.00     0.042 C 
HETATM   12  C   UNL     1      15.078  -6.104 -21.563  1.00  0.00     0.020 A 
HETATM   13  C   UNL     1      14.111  -4.489 -23.715  1.00  0.00     0.005 C 
HETATM   14  C   UNL     1      14.046  -5.999 -23.871  1.00  0.00     0.005 C 
HETATM   15  C   UNL     1      15.087  -6.653 -22.967  1.00  0.00     0.045 C 
HETATM   16  C   UNL     1      15.826  -6.910 -20.565  1.00  0.00     0.268 A 
HETATM   17  O   UNL     1      16.405  -7.934 -20.923  1.00  0.00    -0.266 OA
HETATM   18  N   UNL     1      15.831  -6.424 -19.270  1.00  0.00    -0.261 N 
HETATM   19  C   UNL     1      16.577  -7.129 -18.243  1.00  0.00     0.181 C 
HETATM   20  N   UNL     1      15.181  -5.284 -18.870  1.00  0.00    -0.295 N 
HETATM   21  HN  UNL     1      15.213  -4.989 -17.894  1.00  0.00     0.187 HD
ENDBRANCH   6   9
BRANCH   8  22
HETATM   22  S   UNL     1      15.049   0.173 -17.631  1.00  0.00     0.263 S 
HETATM   23  O   UNL     1      16.392  -0.358 -17.762  1.00  0.00    -0.200 OA
HETATM   24  O   UNL     1      14.737   1.484 -18.150  1.00  0.00    -0.200 OA
BRANCH  22  25
HETATM   25  N   UNL     1      14.721   0.126 -15.959  1.00  0.00    -0.281 N 
HETATM   26  HN  UNL     1      13.895   0.678 -15.729  1.00  0.00     0.179 HD
BRANCH  25  27
HETATM   27  C   UNL     1      14.915  -1.098 -15.263  1.00  0.00     0.042 A 
HETATM   28  C   UNL     1      16.212  -1.566 -15.078  1.00  0.00     0.031 A 
HETATM   29  C   UNL     1      16.422  -2.831 -14.523  1.00  0.00     0.019 A 
HETATM   30  C   UNL     1      15.336  -3.636 -14.149  1.00  0.00     0.032 A 
HETATM   31  C   UNL     1      14.037  -3.117 -14.256  1.00  0.00     0.019 A 
HETATM   32  C   UNL     1      13.829  -1.848 -14.814  1.00  0.00     0.031 A 
BRANCH  30  33
HETATM   33  C   UNL     1      15.632  -5.033 -13.715  1.00  0.00     0.249 C 
HETATM   34  O   UNL     1      16.415  -5.740 -14.339  1.00  0.00    -0.268 OA
HETATM   35  N   UNL     1      14.975  -5.541 -12.630  1.00  0.00    -0.366 N 
HETATM   36  HN1 UNL     1      14.252  -5.071 -12.112  1.00  0.00     0.159 HD
HETATM   37  HN2 UNL     1      15.132  -6.522 -12.432  1.00  0.00     0.159 HD
ENDBRANCH  30  33
ENDBRANCH  25  27
ENDBRANCH  22  25
ENDBRANCH   8  22
ENDBRANCH   2   3
TORSDOF 6
ENDMDL
MODEL 6
REMARK VINA RESULT:      -7.0      3.434      6.400
REMARK  6 active torsions:
REMARK  status: ('A' for Active; 'I' for Inactive)
REMARK    1  A    between atoms: C_2  and  C_3 
REMARK    2  A    between atoms: C_6  and  C_22 
REMARK    3  A    between atoms: C_8  and  S_9 
REMARK    4  A    between atoms: S_9  and  N_12 
REMARK    5  A    between atoms: N_12  and  C_13 
REMARK    6  A    between atoms: C_16  and  C_19 
REMARK       I    between atoms: C_19  and  N_21 
ROOT
HETATM    1  C   UNL     1      19.170  -3.889 -16.289  1.00  0.00     0.010 C 
HETATM    2  C   UNL     1      18.196  -5.060 -16.323  1.00  0.00     0.035 C 
ENDROOT
BRANCH   2   3
HETATM    3  C   UNL     1      17.106  -4.859 -17.348  1.00  0.00    -0.035 C 
HETATM    4  C   UNL     1      17.464  -4.321 -18.599  1.00  0.00     0.009 C 
HETATM    5  C   UNL     1      16.511  -4.103 -19.610  1.00  0.00     0.014 C 
HETATM    6  C   UNL     1      15.175  -4.485 -19.435  1.00  0.00    -0.006 C 
HETATM    7  C   UNL     1      14.857  -5.133 -18.243  1.00  0.00     0.039 C 
HETATM    8  C   UNL     1      15.762  -5.217 -17.167  1.00  0.00     0.086 C 
BRANCH   6   9
HETATM    9  C   UNL     1      14.162  -4.179 -20.523  1.00  0.00     0.065 A 
HETATM   10  C   UNL     1      14.151  -4.958 -21.818  1.00  0.00    -0.017 A 
HETATM   11  C   UNL     1      15.074  -6.116 -22.106  1.00  0.00     0.042 C 
HETATM   12  C   UNL     1      13.223  -4.599 -22.728  1.00  0.00     0.020 A 
HETATM   13  C   UNL     1      14.708  -6.969 -23.320  1.00  0.00     0.005 C 
HETATM   14  C   UNL     1      14.310  -6.069 -24.477  1.00  0.00     0.005 C 
HETATM   15  C   UNL     1      13.091  -5.239 -24.086  1.00  0.00     0.045 C 
HETATM   16  C   UNL     1      12.233  -3.532 -22.433  1.00  0.00     0.268 A 
HETATM   17  O   UNL     1      11.378  -3.249 -23.271  1.00  0.00    -0.266 OA
HETATM   18  N   UNL     1      12.336  -2.931 -21.192  1.00  0.00    -0.261 N 
HETATM   19  C   UNL     1      11.377  -1.910 -20.808  1.00  0.00     0.181 C 
HETATM   20  N   UNL     1      13.292  -3.244 -20.259  1.00  0.00    -0.295 N 
HETATM   21  HN  UNL     1      13.322  -2.750 -19.367  1.00  0.00     0.187 HD
ENDBRANCH   6   9
BRANCH   8  22
HETATM   22  S   UNL     1      15.040  -5.708 -15.599  1.00  0.00     0.263 S 
HETATM   23  O   UNL     1      15.679  -4.919 -14.563  1.00  0.00    -0.200 OA
HETATM   24  O   UNL     1      13.600  -5.758 -15.682  1.00  0.00    -0.200 OA
BRANCH  22  25
HETATM   25  N   UNL     1      15.657  -7.283 -15.392  1.00  0.00    -0.281 N 
HETATM   26  HN  UNL     1      15.445  -7.644 -14.463  1.00  0.00     0.179 HD
BRANCH  25  27
HETATM   27  C   UNL     1      15.586  -8.189 -16.486  1.00  0.00     0.042 A 
HETATM   28  C   UNL     1      16.767  -8.581 -17.109  1.00  0.00     0.031 A 
HETATM   29  C   UNL     1      16.715  -9.356 -18.270  1.00  0.00     0.019 A 
HETATM   30  C   UNL     1      15.483  -9.745 -18.815  1.00  0.00     0.032 A 
HETATM   31  C   UNL     1      14.304  -9.421 -18.129  1.00  0.00     0.019 A 
HETATM   32  C   UNL     1      14.358  -8.642 -16.964  1.00  0.00     0.031 A 
BRANCH  30  33
HETATM   33  C   UNL     1      15.503 -10.432 -20.140  1.00  0.00     0.249 C 
HETATM   34  O   UNL     1      15.225  -9.832 -21.172  1.00  0.00    -0.268 OA
HETATM   35  N   UNL     1      15.788 -11.768 -20.187  1.00  0.00    -0.366 N 
HETATM   36  HN1 UNL     1      15.939 -12.361 -19.389  1.00  0.00     0.159 HD
HETATM   37  HN2 UNL     1      15.693 -12.213 -21.092  1.00  0.00     0.159 HD
ENDBRANCH  30  33
ENDBRANCH  25  27
ENDBRANCH  22  25
ENDBRANCH   8  22
ENDBRANCH   2   3
TORSDOF 6
ENDMDL
MODEL 7
REMARK VINA RESULT:      -7.0      2.668      7.313
REMARK  6 active torsions:
REMARK  status: ('A' for Active; 'I' for Inactive)
REMARK    1  A    between atoms: C_2  and  C_3 
REMARK    2  A    between atoms: C_6  and  C_22 
REMARK    3  A    between atoms: C_8  and  S_9 
REMARK    4  A    between atoms: S_9  and  N_12 
REMARK    5  A    between atoms: N_12  and  C_13 
REMARK    6  A    between atoms: C_16  and  C_19 
REMARK       I    between atoms: C_19  and  N_21 
ROOT
HETATM    1  C   UNL     1      18.204  -5.164 -15.539  1.00  0.00     0.010 C 
HETATM    2  C   UNL     1      17.117  -6.096 -15.019  1.00  0.00     0.035 C 
ENDROOT
BRANCH   2   3
HETATM    3  C   UNL     1      15.850  -5.996 -15.835  1.00  0.00    -0.035 C 
HETATM    4  C   UNL     1      15.897  -6.402 -17.182  1.00  0.00     0.009 C 
HETATM    5  C   UNL     1      14.762  -6.344 -18.011  1.00  0.00     0.014 C 
HETATM    6  C   UNL     1      13.518  -5.949 -17.503  1.00  0.00    -0.006 C 
HETATM    7  C   UNL     1      13.454  -5.673 -16.139  1.00  0.00     0.039 C 
HETATM    8  C   UNL     1      14.608  -5.577 -15.336  1.00  0.00     0.086 C 
BRANCH   6   9
HETATM    9  C   UNL     1      12.329  -5.839 -18.440  1.00  0.00     0.065 A 
HETATM   10  C   UNL     1      12.002  -4.537 -19.133  1.00  0.00    -0.017 A 
HETATM   11  C   UNL     1      12.842  -3.290 -19.010  1.00  0.00     0.042 C 
HETATM   12  C   UNL     1      10.916  -4.537 -19.932  1.00  0.00     0.020 A 
HETATM   13  C   UNL     1      12.536  -2.182 -20.019  1.00  0.00     0.005 C 
HETATM   14  C   UNL     1      11.032  -2.019 -20.159  1.00  0.00     0.005 C 
HETATM   15  C   UNL     1      10.420  -3.320 -20.671  1.00  0.00     0.045 C 
HETATM   16  C   UNL     1      10.128  -5.776 -20.156  1.00  0.00     0.268 A 
HETATM   17  O   UNL     1       9.162  -5.752 -20.915  1.00  0.00    -0.266 OA
HETATM   18  N   UNL     1      10.567  -6.905 -19.487  1.00  0.00    -0.261 N 
HETATM   19  C   UNL     1       9.879  -8.168 -19.687  1.00  0.00     0.181 C 
HETATM   20  N   UNL     1      11.643  -6.931 -18.636  1.00  0.00    -0.295 N 
HETATM   21  HN  UNL     1      11.903  -7.795 -18.162  1.00  0.00     0.187 HD
ENDBRANCH   6   9
BRANCH   8  22
HETATM   22  S   UNL     1      14.359  -4.815 -13.730  1.00  0.00     0.263 S 
HETATM   23  O   UNL     1      12.951  -4.487 -13.621  1.00  0.00    -0.200 OA
HETATM   24  O   UNL     1      15.004  -5.578 -12.687  1.00  0.00    -0.200 OA
BRANCH  22  25
HETATM   25  N   UNL     1      15.147  -3.315 -13.913  1.00  0.00    -0.281 N 
HETATM   26  HN  UNL     1      16.140  -3.391 -13.700  1.00  0.00     0.179 HD
BRANCH  25  27
HETATM   27  C   UNL     1      14.763  -2.474 -14.993  1.00  0.00     0.042 A 
HETATM   28  C   UNL     1      15.675  -2.242 -16.019  1.00  0.00     0.031 A 
HETATM   29  C   UNL     1      15.375  -1.311 -17.016  1.00  0.00     0.019 A 
HETATM   30  C   UNL     1      14.162  -0.607 -16.996  1.00  0.00     0.032 A 
HETATM   31  C   UNL     1      13.215  -0.916 -16.009  1.00  0.00     0.019 A 
HETATM   32  C   UNL     1      13.518  -1.850 -15.008  1.00  0.00     0.031 A 
BRANCH  30  33
HETATM   33  C   UNL     1      13.982   0.482 -18.000  1.00  0.00     0.249 C 
HETATM   34  O   UNL     1      12.869   0.918 -18.273  1.00  0.00    -0.268 OA
HETATM   35  N   UNL     1      15.079   0.962 -18.658  1.00  0.00    -0.366 N 
HETATM   36  HN1 UNL     1      16.016   0.607 -18.568  1.00  0.00     0.159 HD
HETATM   37  HN2 UNL     1      14.899   1.629 -19.399  1.00  0.00     0.159 HD
ENDBRANCH  30  33
ENDBRANCH  25  27
ENDBRANCH  22  25
ENDBRANCH   8  22
ENDBRANCH   2   3
TORSDOF 6
ENDMDL
MODEL 8
REMARK VINA RESULT:      -7.0      3.221      4.900
REMARK  6 active torsions:
REMARK  status: ('A' for Active; 'I' for Inactive)
REMARK    1  A    between atoms: C_2  and  C_3 
REMARK    2  A    between atoms: C_6  and  C_22 
REMARK    3  A    between atoms: C_8  and  S_9 
REMARK    4  A    between atoms: S_9  and  N_12 
REMARK    5  A    between atoms: N_12  and  C_13 
REMARK    6  A    between atoms: C_16  and  C_19 
REMARK       I    between atoms: C_19  and  N_21 
ROOT
HETATM    1  C   UNL     1      16.849  -7.804 -20.516  1.00  0.00     0.010 C 
HETATM    2  C   UNL     1      15.632  -7.060 -19.978  1.00  0.00     0.035 C 
ENDROOT
BRANCH   2   3
HETATM    3  C   UNL     1      15.853  -5.567 -19.940  1.00  0.00    -0.035 C 
HETATM    4  C   UNL     1      16.632  -5.040 -18.892  1.00  0.00     0.009 C 
HETATM    5  C   UNL     1      16.888  -3.662 -18.784  1.00  0.00     0.014 C 
HETATM    6  C   UNL     1      16.440  -2.766 -19.762  1.00  0.00    -0.006 C 
HETATM    7  C   UNL     1      15.780  -3.313 -20.860  1.00  0.00     0.039 C 
HETATM    8  C   UNL     1      15.384  -4.664 -20.904  1.00  0.00     0.086 C 
BRANCH   6   9
HETATM    9  C   UNL     1      16.682  -1.278 -19.580  1.00  0.00     0.065 A 
HETATM   10  C   UNL     1      17.873  -0.601 -20.217  1.00  0.00    -0.017 A 
HETATM   11  C   UNL     1      18.857  -1.309 -21.115  1.00  0.00     0.042 C 
HETATM   12  C   UNL     1      18.010   0.720 -19.983  1.00  0.00     0.020 A 
HETATM   13  C   UNL     1      19.800  -0.403 -21.909  1.00  0.00     0.005 C 
HETATM   14  C   UNL     1      20.323   0.704 -21.010  1.00  0.00     0.005 C 
HETATM   15  C   UNL     1      19.156   1.548 -20.505  1.00  0.00     0.045 C 
HETATM   16  C   UNL     1      17.001   1.466 -19.188  1.00  0.00     0.268 A 
HETATM   17  O   UNL     1      17.137   2.677 -19.019  1.00  0.00    -0.266 OA
HETATM   18  N   UNL     1      15.941   0.725 -18.700  1.00  0.00    -0.261 N 
HETATM   19  C   UNL     1      14.887   1.388 -17.952  1.00  0.00     0.181 C 
HETATM   20  N   UNL     1      15.792  -0.626 -18.885  1.00  0.00    -0.295 N 
HETATM   21  HN  UNL     1      14.993  -1.116 -18.483  1.00  0.00     0.187 HD
ENDBRANCH   6   9
BRANCH   8  22
HETATM   22  S   UNL     1      14.202  -5.071 -22.192  1.00  0.00     0.263 S 
HETATM   23  O   UNL     1      14.028  -3.886 -23.010  1.00  0.00    -0.200 OA
HETATM   24  O   UNL     1      14.524  -6.334 -22.813  1.00  0.00    -0.200 OA
BRANCH  22  25
HETATM   25  N   UNL     1      12.746  -5.218 -21.318  1.00  0.00    -0.281 N 
HETATM   26  HN  UNL     1      12.635  -6.158 -20.940  1.00  0.00     0.179 HD
BRANCH  25  27
HETATM   27  C   UNL     1      12.327  -4.125 -20.510  1.00  0.00     0.042 A 
HETATM   28  C   UNL     1      11.653  -3.066 -21.112  1.00  0.00     0.031 A 
HETATM   29  C   UNL     1      11.355  -1.922 -20.369  1.00  0.00     0.019 A 
HETATM   30  C   UNL     1      11.728  -1.827 -19.021  1.00  0.00     0.032 A 
HETATM   31  C   UNL     1      12.325  -2.935 -18.402  1.00  0.00     0.019 A 
HETATM   32  C   UNL     1      12.624  -4.083 -19.149  1.00  0.00     0.031 A 
BRANCH  30  33
HETATM   33  C   UNL     1      11.520  -0.516 -18.339  1.00  0.00     0.249 C 
HETATM   34  O   UNL     1      11.635  -0.405 -17.123  1.00  0.00    -0.268 OA
HETATM   35  N   UNL     1      11.147   0.565 -19.087  1.00  0.00    -0.366 N 
HETATM   36  HN1 UNL     1      10.942   0.552 -20.072  1.00  0.00     0.159 HD
HETATM   37  HN2 UNL     1      10.921   1.408 -18.572  1.00  0.00     0.159 HD
ENDBRANCH  30  33
ENDBRANCH  25  27
ENDBRANCH  22  25
ENDBRANCH   8  22
ENDBRANCH   2   3
TORSDOF 6
ENDMDL
MODEL 9
REMARK VINA RESULT:      -7.0      3.212      6.679
REMARK  6 active torsions:
REMARK  status: ('A' for Active; 'I' for Inactive)
REMARK    1  A    between atoms: C_2  and  C_3 
REMARK    2  A    between atoms: C_6  and  C_22 
REMARK    3  A    between atoms: C_8  and  S_9 
REMARK    4  A    between atoms: S_9  and  N_12 
REMARK    5  A    between atoms: N_12  and  C_13 
REMARK    6  A    between atoms: C_16  and  C_19 
REMARK       I    between atoms: C_19  and  N_21 
ROOT
HETATM    1  C   UNL     1      11.618  -0.354 -17.545  1.00  0.00     0.010 C 
HETATM    2  C   UNL     1      13.063  -0.223 -18.011  1.00  0.00     0.035 C 
ENDROOT
BRANCH   2   3
HETATM    3  C   UNL     1      13.771  -1.557 -18.036  1.00  0.00    -0.035 C 
HETATM    4  C   UNL     1      12.983  -2.724 -18.076  1.00  0.00     0.009 C 
HETATM    5  C   UNL     1      13.562  -4.005 -18.103  1.00  0.00     0.014 C 
HETATM    6  C   UNL     1      14.951  -4.167 -18.168  1.00  0.00    -0.006 C 
HETATM    7  C   UNL     1      15.717  -3.006 -18.257  1.00  0.00     0.039 C 
HETATM    8  C   UNL     1      15.163  -1.724 -18.075  1.00  0.00     0.086 C 
BRANCH   6   9
HETATM    9  C   UNL     1      15.543  -5.564 -18.134  1.00  0.00     0.065 A 
HETATM   10  C   UNL     1      15.628  -6.404 -19.388  1.00  0.00    -0.017 A 
HETATM   11  C   UNL     1      15.206  -5.917 -20.752  1.00  0.00     0.042 C 
HETATM   12  C   UNL     1      16.154  -7.638 -19.250  1.00  0.00     0.020 A 
HETATM   13  C   UNL     1      15.654  -6.780 -21.931  1.00  0.00     0.005 C 
HETATM   14  C   UNL     1      15.443  -8.248 -21.601  1.00  0.00     0.005 C 
HETATM   15  C   UNL     1      16.281  -8.625 -20.383  1.00  0.00     0.045 C 
HETATM   16  C   UNL     1      16.674  -8.109 -17.941  1.00  0.00     0.268 A 
HETATM   17  O   UNL     1      17.178  -9.227 -17.855  1.00  0.00    -0.266 OA
HETATM   18  N   UNL     1      16.568  -7.218 -16.888  1.00  0.00    -0.261 N 
HETATM   19  C   UNL     1      17.094  -7.584 -15.585  1.00  0.00     0.181 C 
HETATM   20  N   UNL     1      16.002  -5.972 -16.984  1.00  0.00    -0.295 N 
HETATM   21  HN  UNL     1      15.941  -5.371 -16.163  1.00  0.00     0.187 HD
ENDBRANCH   6   9
BRANCH   8  22
HETATM   22  S   UNL     1      16.354  -0.407 -17.815  1.00  0.00     0.263 S 
HETATM   23  O   UNL     1      17.676  -0.986 -17.958  1.00  0.00    -0.200 OA
HETATM   24  O   UNL     1      15.998   0.773 -18.567  1.00  0.00    -0.200 OA
BRANCH  22  25
HETATM   25  N   UNL     1      16.191  -0.093 -16.147  1.00  0.00    -0.281 N 
HETATM   26  HN  UNL     1      15.829   0.845 -15.982  1.00  0.00     0.179 HD
BRANCH  25  27
HETATM   27  C   UNL     1      15.733  -1.140 -15.301  1.00  0.00     0.042 A 
HETATM   28  C   UNL     1      16.580  -2.213 -15.043  1.00  0.00     0.031 A 
HETATM   29  C   UNL     1      16.105  -3.317 -14.331  1.00  0.00     0.019 A 
HETATM   30  C   UNL     1      14.780  -3.356 -13.874  1.00  0.00     0.032 A 
HETATM   31  C   UNL     1      13.963  -2.232 -14.062  1.00  0.00     0.019 A 
HETATM   32  C   UNL     1      14.442  -1.125 -14.776  1.00  0.00     0.031 A 
BRANCH  30  33
HETATM   33  C   UNL     1      14.299  -4.631 -13.265  1.00  0.00     0.249 C 
HETATM   34  O   UNL     1      13.104  -4.837 -13.080  1.00  0.00    -0.268 OA
HETATM   35  N   UNL     1      15.218  -5.560 -12.864  1.00  0.00    -0.366 N 
HETATM   36  HN1 UNL     1      16.217  -5.443 -12.892  1.00  0.00     0.159 HD
HETATM   37  HN2 UNL     1      14.853  -6.364 -12.367  1.00  0.00     0.159 HD
ENDBRANCH  30  33
ENDBRANCH  25  27
ENDBRANCH  22  25
ENDBRANCH   8  22
ENDBRANCH   2   3
TORSDOF 6
ENDMDL
