MODEL 1
REMARK VINA RESULT:      -7.8      0.000      0.000
REMARK  6 active torsions:
REMARK  status: ('A' for Active; 'I' for Inactive)
REMARK    1  A    between atoms: C_5  and  C_13 
REMARK    2  A    between atoms: C_7  and  S_8 
REMARK    3  A    between atoms: S_8  and  N_11 
REMARK    4  A    between atoms: N_22  and  C_23 
REMARK    5  A    between atoms: C_23  and  C_24 
REMARK       I    between atoms: C_24  and  N_26 
REMARK    6  A    between atoms: N_26  and  C_27 
ROOT
HETATM    1  C   UNL     1      13.794  -4.413 -23.720  1.00  0.00     0.050 C 
HETATM    2  C   UNL     1      13.777  -3.859 -22.323  1.00  0.00    -0.039 C 
HETATM    3  C   UNL     1      14.994  -3.671 -21.643  1.00  0.00     0.009 C 
HETATM    4  C   UNL     1      15.033  -3.212 -20.313  1.00  0.00     0.014 C 
HETATM    5  C   UNL     1      13.855  -2.872 -19.635  1.00  0.00    -0.006 C 
HETATM    6  C   UNL     1      12.670  -2.927 -20.369  1.00  0.00     0.039 C 
HETATM    7  C   UNL     1      12.604  -3.514 -21.647  1.00  0.00     0.086 C 
ENDROOT
BRANCH   7   8
HETATM    8  S   UNL     1      10.955  -3.825 -22.267  1.00  0.00     0.259 S 
HETATM    9  O   UNL     1      10.725  -2.879 -23.336  1.00  0.00    -0.201 OA
HETATM   10  O   UNL     1      10.712  -5.238 -22.425  1.00  0.00    -0.201 OA
BRANCH   8  11
HETATM   11  N   UNL     1       9.982  -3.299 -20.983  1.00  0.00    -0.320 N 
HETATM   12  C   UNL     1       8.531  -3.379 -21.140  1.00  0.00     0.159 C 
HETATM   13  HN  UNL     1      10.349  -2.435 -20.580  1.00  0.00     0.171 HD
ENDBRANCH   8  11
ENDBRANCH   7   8
BRANCH   5  14
HETATM   14  C   UNL     1      13.915  -2.523 -18.156  1.00  0.00     0.065 C 
HETATM   15  C   UNL     1      13.761  -3.606 -17.113  1.00  0.00    -0.017 C 
HETATM   16  C   UNL     1      13.435  -5.044 -17.420  1.00  0.00     0.042 C 
HETATM   17  C   UNL     1      13.931  -3.229 -15.832  1.00  0.00     0.020 C 
HETATM   18  C   UNL     1      13.554  -6.011 -16.242  1.00  0.00     0.005 C 
HETATM   19  C   UNL     1      12.912  -5.389 -15.014  1.00  0.00     0.005 C 
HETATM   20  C   UNL     1      13.669  -4.117 -14.643  1.00  0.00     0.045 C 
HETATM   21  C   UNL     1      14.395  -1.866 -15.496  1.00  0.00     0.269 C 
HETATM   22  O   UNL     1      14.749  -1.599 -14.350  1.00  0.00    -0.266 OA
HETATM   23  N   UNL     1      14.309  -0.933 -16.512  1.00  0.00    -0.248 N 
HETATM   24  N   UNL     1      14.147  -1.276 -17.843  1.00  0.00    -0.294 N 
HETATM   25  HN  UNL     1      14.209  -0.565 -18.571  1.00  0.00     0.187 HD
BRANCH  23  26
HETATM   26  C   UNL     1      14.758   0.426 -16.220  1.00  0.00     0.255 C 
BRANCH  26  27
HETATM   27  C   UNL     1      15.403   1.220 -17.372  1.00  0.00     0.242 C 
HETATM   28  O   UNL     1      14.680   1.910 -18.093  1.00  0.00    -0.271 OA
HETATM   29  N   UNL     1      16.771   1.074 -17.536  1.00  0.00    -0.326 N 
HETATM   30  HN  UNL     1      17.209   0.347 -16.988  1.00  0.00     0.169 HD
BRANCH  29  31
HETATM   31  C   UNL     1      17.578   1.713 -18.507  1.00  0.00     0.035 A 
HETATM   32  C   UNL     1      17.797   1.190 -19.784  1.00  0.00     0.032 A 
HETATM   33  C   UNL     1      18.621   1.851 -20.702  1.00  0.00     0.044 A 
HETATM   34  C   UNL     1      19.231   3.044 -20.330  1.00  0.00     0.116 A 
HETATM   35  C   UNL     1      19.020   3.592 -19.073  1.00  0.00     0.044 A 
HETATM   36  F   UNL     1      20.035   3.673 -21.199  1.00  0.00    -0.206 F 
HETATM   37  C   UNL     1      18.176   2.937 -18.165  1.00  0.00     0.032 A 
ENDBRANCH  29  31
ENDBRANCH  26  27
ENDBRANCH  23  26
ENDBRANCH   5  14
TORSDOF 6
ENDMDL
MODEL 2
REMARK VINA RESULT:      -7.6     10.794     16.210
REMARK  6 active torsions:
REMARK  status: ('A' for Active; 'I' for Inactive)
REMARK    1  A    between atoms: C_5  and  C_13 
REMARK    2  A    between atoms: C_7  and  S_8 
REMARK    3  A    between atoms: S_8  and  N_11 
REMARK    4  A    between atoms: N_22  and  C_23 
REMARK    5  A    between atoms: C_23  and  C_24 
REMARK       I    between atoms: C_24  and  N_26 
REMARK    6  A    between atoms: N_26  and  C_27 
ROOT
HETATM    1  C   UNL     1      15.512  -7.441 -25.534  1.00  0.00     0.050 C 
HETATM    2  C   UNL     1      15.488  -7.769 -27.000  1.00  0.00    -0.039 C 
HETATM    3  C   UNL     1      16.629  -8.334 -27.597  1.00  0.00     0.009 C 
HETATM    4  C   UNL     1      16.682  -8.605 -28.978  1.00  0.00     0.014 C 
HETATM    5  C   UNL     1      15.572  -8.370 -29.800  1.00  0.00    -0.006 C 
HETATM    6  C   UNL     1      14.402  -7.946 -29.169  1.00  0.00     0.039 C 
HETATM    7  C   UNL     1      14.380  -7.541 -27.821  1.00  0.00     0.086 C 
ENDROOT
BRANCH   7   8
HETATM    8  S   UNL     1      12.898  -6.687 -27.298  1.00  0.00     0.259 S 
HETATM    9  O   UNL     1      12.042  -6.586 -28.459  1.00  0.00    -0.201 OA
HETATM   10  O   UNL     1      12.421  -7.190 -26.033  1.00  0.00    -0.201 OA
BRANCH   8  11
HETATM   11  N   UNL     1      13.467  -5.115 -27.020  1.00  0.00    -0.320 N 
HETATM   12  C   UNL     1      13.210  -4.510 -25.713  1.00  0.00     0.159 C 
HETATM   13  HN  UNL     1      13.306  -4.522 -27.836  1.00  0.00     0.171 HD
ENDBRANCH   8  11
ENDBRANCH   7   8
BRANCH   5  14
HETATM   14  C   UNL     1      15.707  -8.532 -31.306  1.00  0.00     0.065 C 
HETATM   15  C   UNL     1      16.130  -7.359 -32.160  1.00  0.00    -0.017 C 
HETATM   16  C   UNL     1      16.338  -5.959 -31.644  1.00  0.00     0.042 C 
HETATM   17  C   UNL     1      16.326  -7.613 -33.467  1.00  0.00     0.020 C 
HETATM   18  C   UNL     1      16.985  -4.985 -32.628  1.00  0.00     0.005 C 
HETATM   19  C   UNL     1      16.339  -5.144 -33.992  1.00  0.00     0.005 C 
HETATM   20  C   UNL     1      16.597  -6.557 -34.507  1.00  0.00     0.045 C 
HETATM   21  C   UNL     1      16.277  -8.996 -33.988  1.00  0.00     0.269 C 
HETATM   22  O   UNL     1      16.663  -9.240 -35.129  1.00  0.00    -0.266 OA
HETATM   23  N   UNL     1      15.696  -9.933 -33.155  1.00  0.00    -0.248 N 
HETATM   24  N   UNL     1      15.488  -9.719 -31.804  1.00  0.00    -0.294 N 
HETATM   25  HN  UNL     1      15.167 -10.479 -31.204  1.00  0.00     0.187 HD
BRANCH  23  26
HETATM   26  C   UNL     1      15.628 -11.312 -33.634  1.00  0.00     0.255 C 
BRANCH  26  27
HETATM   27  C   UNL     1      15.342 -12.408 -32.590  1.00  0.00     0.242 C 
HETATM   28  O   UNL     1      14.184 -12.809 -32.456  1.00  0.00    -0.271 OA
HETATM   29  N   UNL     1      16.421 -12.851 -31.843  1.00  0.00    -0.326 N 
HETATM   30  HN  UNL     1      17.274 -12.316 -31.934  1.00  0.00     0.169 HD
BRANCH  29  31
HETATM   31  C   UNL     1      16.403 -13.855 -30.846  1.00  0.00     0.035 A 
HETATM   32  C   UNL     1      17.007 -15.104 -31.008  1.00  0.00     0.032 A 
HETATM   33  C   UNL     1      16.944 -16.072 -29.999  1.00  0.00     0.044 A 
HETATM   34  C   UNL     1      16.264 -15.780 -28.821  1.00  0.00     0.116 A 
HETATM   35  C   UNL     1      15.666 -14.543 -28.629  1.00  0.00     0.044 A 
HETATM   36  F   UNL     1      16.185 -16.710 -27.858  1.00  0.00    -0.206 F 
HETATM   37  C   UNL     1      15.752 -13.569 -29.635  1.00  0.00     0.032 A 
ENDBRANCH  29  31
ENDBRANCH  26  27
ENDBRANCH  23  26
ENDBRANCH   5  14
TORSDOF 6
ENDMDL
MODEL 3
REMARK VINA RESULT:      -7.5      3.800      6.641
REMARK  6 active torsions:
REMARK  status: ('A' for Active; 'I' for Inactive)
REMARK    1  A    between atoms: C_5  and  C_13 
REMARK    2  A    between atoms: C_7  and  S_8 
REMARK    3  A    between atoms: S_8  and  N_11 
REMARK    4  A    between atoms: N_22  and  C_23 
REMARK    5  A    between atoms: C_23  and  C_24 
REMARK       I    between atoms: C_24  and  N_26 
REMARK    6  A    between atoms: N_26  and  C_27 
ROOT
HETATM    1  C   UNL     1      13.767  -4.150 -23.305  1.00  0.00     0.050 C 
HETATM    2  C   UNL     1      13.947  -3.700 -21.883  1.00  0.00    -0.039 C 
HETATM    3  C   UNL     1      15.236  -3.693 -21.322  1.00  0.00     0.009 C 
HETATM    4  C   UNL     1      15.453  -3.338 -19.977  1.00  0.00     0.014 C 
HETATM    5  C   UNL     1      14.392  -2.925 -19.162  1.00  0.00    -0.006 C 
HETATM    6  C   UNL     1      13.143  -2.800 -19.772  1.00  0.00     0.039 C 
HETATM    7  C   UNL     1      12.890  -3.282 -21.069  1.00  0.00     0.086 C 
ENDROOT
BRANCH   7   8
HETATM    8  S   UNL     1      11.165  -3.370 -21.535  1.00  0.00     0.259 S 
HETATM    9  O   UNL     1      10.404  -2.851 -20.420  1.00  0.00    -0.201 OA
HETATM   10  O   UNL     1      10.962  -2.906 -22.886  1.00  0.00    -0.201 OA
BRANCH   8  11
HETATM   11  N   UNL     1      10.878  -5.040 -21.538  1.00  0.00    -0.320 N 
HETATM   12  C   UNL     1       9.730  -5.543 -20.784  1.00  0.00     0.159 C 
HETATM   13  HN  UNL     1      11.752  -5.558 -21.436  1.00  0.00     0.171 HD
ENDBRANCH   8  11
ENDBRANCH   7   8
BRANCH   5  14
HETATM   14  C   UNL     1      14.632  -2.693 -17.678  1.00  0.00     0.065 C 
HETATM   15  C   UNL     1      14.869  -1.293 -17.158  1.00  0.00    -0.017 C 
HETATM   16  C   UNL     1      14.998  -0.071 -18.028  1.00  0.00     0.042 C 
HETATM   17  C   UNL     1      14.969  -1.162 -15.822  1.00  0.00     0.020 C 
HETATM   18  C   UNL     1      15.003   1.266 -17.288  1.00  0.00     0.005 C 
HETATM   19  C   UNL     1      15.911   1.166 -16.075  1.00  0.00     0.005 C 
HETATM   20  C   UNL     1      15.357   0.114 -15.120  1.00  0.00     0.045 C 
HETATM   21  C   UNL     1      14.703  -2.307 -14.924  1.00  0.00     0.269 C 
HETATM   22  O   UNL     1      14.589  -2.129 -13.713  1.00  0.00    -0.266 OA
HETATM   23  N   UNL     1      14.692  -3.552 -15.523  1.00  0.00    -0.248 N 
HETATM   24  N   UNL     1      14.578  -3.733 -16.891  1.00  0.00    -0.294 N 
HETATM   25  HN  UNL     1      14.454  -4.668 -17.279  1.00  0.00     0.187 HD
BRANCH  23  26
HETATM   26  C   UNL     1      14.433  -4.709 -14.670  1.00  0.00     0.255 C 
BRANCH  26  27
HETATM   27  C   UNL     1      14.791  -6.097 -15.235  1.00  0.00     0.242 C 
HETATM   28  O   UNL     1      13.885  -6.914 -15.416  1.00  0.00    -0.271 OA
HETATM   29  N   UNL     1      16.133  -6.342 -15.475  1.00  0.00    -0.326 N 
HETATM   30  HN  UNL     1      16.781  -5.653 -15.120  1.00  0.00     0.169 HD
BRANCH  29  31
HETATM   31  C   UNL     1      16.693  -7.528 -16.006  1.00  0.00     0.035 A 
HETATM   32  C   UNL     1      16.431  -7.986 -17.299  1.00  0.00     0.032 A 
HETATM   33  C   UNL     1      16.994  -9.178 -17.770  1.00  0.00     0.044 A 
HETATM   34  C   UNL     1      17.823  -9.914 -16.931  1.00  0.00     0.116 A 
HETATM   35  C   UNL     1      18.111  -9.475 -15.647  1.00  0.00     0.044 A 
HETATM   36  F   UNL     1      18.352 -11.065 -17.372  1.00  0.00    -0.206 F 
HETATM   37  C   UNL     1      17.562  -8.270 -15.188  1.00  0.00     0.032 A 
ENDBRANCH  29  31
ENDBRANCH  26  27
ENDBRANCH  23  26
ENDBRANCH   5  14
TORSDOF 6
ENDMDL
MODEL 4
REMARK VINA RESULT:      -7.5      5.386     10.525
REMARK  6 active torsions:
REMARK  status: ('A' for Active; 'I' for Inactive)
REMARK    1  A    between atoms: C_5  and  C_13 
REMARK    2  A    between atoms: C_7  and  S_8 
REMARK    3  A    between atoms: S_8  and  N_11 
REMARK    4  A    between atoms: N_22  and  C_23 
REMARK    5  A    between atoms: C_23  and  C_24 
REMARK       I    between atoms: C_24  and  N_26 
REMARK    6  A    between atoms: N_26  and  C_27 
ROOT
HETATM    1  C   UNL     1      13.346  -0.727 -16.021  1.00  0.00     0.050 C 
HETATM    2  C   UNL     1      12.961  -1.614 -17.171  1.00  0.00    -0.039 C 
HETATM    3  C   UNL     1      12.152  -1.096 -18.199  1.00  0.00     0.009 C 
HETATM    4  C   UNL     1      11.714  -1.901 -19.268  1.00  0.00     0.014 C 
HETATM    5  C   UNL     1      12.115  -3.238 -19.373  1.00  0.00    -0.006 C 
HETATM    6  C   UNL     1      13.032  -3.696 -18.426  1.00  0.00     0.039 C 
HETATM    7  C   UNL     1      13.365  -2.947 -17.281  1.00  0.00     0.086 C 
ENDROOT
BRANCH   7   8
HETATM    8  S   UNL     1      14.255  -3.839 -16.011  1.00  0.00     0.259 S 
HETATM    9  O   UNL     1      15.619  -3.361 -16.042  1.00  0.00    -0.201 OA
HETATM   10  O   UNL     1      13.492  -3.909 -14.788  1.00  0.00    -0.201 OA
BRANCH   8  11
HETATM   11  N   UNL     1      14.312  -5.409 -16.646  1.00  0.00    -0.320 N 
HETATM   12  C   UNL     1      13.815  -6.506 -15.817  1.00  0.00     0.159 C 
HETATM   13  HN  UNL     1      15.196  -5.571 -17.133  1.00  0.00     0.171 HD
ENDBRANCH   8  11
ENDBRANCH   7   8
BRANCH   5  14
HETATM   14  C   UNL     1      11.508  -4.121 -20.453  1.00  0.00     0.065 C 
HETATM   15  C   UNL     1      12.278  -4.405 -21.723  1.00  0.00    -0.017 C 
HETATM   16  C   UNL     1      13.604  -3.782 -22.073  1.00  0.00     0.042 C 
HETATM   17  C   UNL     1      11.715  -5.277 -22.579  1.00  0.00     0.020 C 
HETATM   18  C   UNL     1      14.311  -4.382 -23.288  1.00  0.00     0.005 C 
HETATM   19  C   UNL     1      13.307  -4.579 -24.409  1.00  0.00     0.005 C 
HETATM   20  C   UNL     1      12.242  -5.575 -23.959  1.00  0.00     0.045 C 
HETATM   21  C   UNL     1      10.491  -6.022 -22.211  1.00  0.00     0.269 C 
HETATM   22  O   UNL     1      10.108  -6.962 -22.903  1.00  0.00    -0.266 OA
HETATM   23  N   UNL     1       9.792  -5.531 -21.124  1.00  0.00    -0.248 N 
HETATM   24  N   UNL     1      10.336  -4.644 -20.212  1.00  0.00    -0.294 N 
HETATM   25  HN  UNL     1       9.828  -4.401 -19.362  1.00  0.00     0.187 HD
BRANCH  23  26
HETATM   26  C   UNL     1       8.576  -6.239 -20.728  1.00  0.00     0.255 C 
BRANCH  26  27
HETATM   27  C   UNL     1       8.669  -7.172 -19.506  1.00  0.00     0.242 C 
HETATM   28  O   UNL     1       9.658  -7.091 -18.774  1.00  0.00    -0.271 OA
HETATM   29  N   UNL     1       7.630  -8.071 -19.331  1.00  0.00    -0.326 N 
HETATM   30  HN  UNL     1       6.975  -8.148 -20.097  1.00  0.00     0.169 HD
BRANCH  29  31
HETATM   31  C   UNL     1       7.491  -9.006 -18.279  1.00  0.00     0.035 A 
HETATM   32  C   UNL     1       6.527  -8.890 -17.274  1.00  0.00     0.032 A 
HETATM   33  C   UNL     1       6.444  -9.832 -16.243  1.00  0.00     0.044 A 
HETATM   34  C   UNL     1       7.340 -10.895 -16.220  1.00  0.00     0.116 A 
HETATM   35  C   UNL     1       8.298 -11.042 -17.213  1.00  0.00     0.044 A 
HETATM   36  F   UNL     1       7.275 -11.791 -15.225  1.00  0.00    -0.206 F 
HETATM   37  C   UNL     1       8.363 -10.107 -18.256  1.00  0.00     0.032 A 
ENDBRANCH  29  31
ENDBRANCH  26  27
ENDBRANCH  23  26
ENDBRANCH   5  14
TORSDOF 6
ENDMDL
MODEL 5
REMARK VINA RESULT:      -7.5      4.539      7.588
REMARK  6 active torsions:
REMARK  status: ('A' for Active; 'I' for Inactive)
REMARK    1  A    between atoms: C_5  and  C_13 
REMARK    2  A    between atoms: C_7  and  S_8 
REMARK    3  A    between atoms: S_8  and  N_11 
REMARK    4  A    between atoms: N_22  and  C_23 
REMARK    5  A    between atoms: C_23  and  C_24 
REMARK       I    between atoms: C_24  and  N_26 
REMARK    6  A    between atoms: N_26  and  C_27 
ROOT
HETATM    1  C   UNL     1      17.248  -9.399 -18.375  1.00  0.00     0.050 C 
HETATM    2  C   UNL     1      16.484  -8.554 -19.354  1.00  0.00    -0.039 C 
HETATM    3  C   UNL     1      17.099  -7.417 -19.908  1.00  0.00     0.009 C 
HETATM    4  C   UNL     1      16.408  -6.558 -20.784  1.00  0.00     0.014 C 
HETATM    5  C   UNL     1      15.093  -6.839 -21.178  1.00  0.00    -0.006 C 
HETATM    6  C   UNL     1      14.548  -8.044 -20.735  1.00  0.00     0.039 C 
HETATM    7  C   UNL     1      15.174  -8.835 -19.754  1.00  0.00     0.086 C 
ENDROOT
BRANCH   7   8
HETATM    8  S   UNL     1      14.162 -10.132 -19.050  1.00  0.00     0.259 S 
HETATM    9  O   UNL     1      14.777 -11.388 -19.417  1.00  0.00    -0.201 OA
HETATM   10  O   UNL     1      13.790  -9.826 -17.689  1.00  0.00    -0.201 OA
BRANCH   8  11
HETATM   11  N   UNL     1      12.750 -10.032 -19.981  1.00  0.00    -0.320 N 
HETATM   12  C   UNL     1      11.465 -10.001 -19.283  1.00  0.00     0.159 C 
HETATM   13  HN  UNL     1      12.810 -10.644 -20.797  1.00  0.00     0.171 HD
ENDBRANCH   8  11
ENDBRANCH   7   8
BRANCH   5  14
HETATM   14  C   UNL     1      14.324  -5.818 -22.004  1.00  0.00     0.065 C 
HETATM   15  C   UNL     1      14.247  -5.961 -23.507  1.00  0.00    -0.017 C 
HETATM   16  C   UNL     1      14.982  -7.007 -24.302  1.00  0.00     0.042 C 
HETATM   17  C   UNL     1      13.462  -5.077 -24.150  1.00  0.00     0.020 C 
HETATM   18  C   UNL     1      14.583  -7.115 -25.774  1.00  0.00     0.005 C 
HETATM   19  C   UNL     1      14.476  -5.723 -26.369  1.00  0.00     0.005 C 
HETATM   20  C   UNL     1      13.373  -4.953 -25.649  1.00  0.00     0.045 C 
HETATM   21  C   UNL     1      12.610  -4.130 -23.399  1.00  0.00     0.269 C 
HETATM   22  O   UNL     1      11.746  -3.479 -23.983  1.00  0.00    -0.266 OA
HETATM   23  N   UNL     1      12.918  -3.974 -22.061  1.00  0.00    -0.248 N 
HETATM   24  N   UNL     1      13.710  -4.864 -21.358  1.00  0.00    -0.294 N 
HETATM   25  HN  UNL     1      13.814  -4.776 -20.347  1.00  0.00     0.187 HD
BRANCH  23  26
HETATM   26  C   UNL     1      12.099  -3.045 -21.284  1.00  0.00     0.255 C 
BRANCH  26  27
HETATM   27  C   UNL     1      12.193  -3.137 -19.749  1.00  0.00     0.242 C 
HETATM   28  O   UNL     1      11.491  -3.961 -19.160  1.00  0.00    -0.271 OA
HETATM   29  N   UNL     1      13.055  -2.248 -19.126  1.00  0.00    -0.326 N 
HETATM   30  HN  UNL     1      13.435  -1.515 -19.709  1.00  0.00     0.169 HD
BRANCH  29  31
HETATM   31  C   UNL     1      13.318  -2.158 -17.739  1.00  0.00     0.035 A 
HETATM   32  C   UNL     1      14.006  -3.143 -17.026  1.00  0.00     0.032 A 
HETATM   33  C   UNL     1      14.222  -3.017 -15.649  1.00  0.00     0.044 A 
HETATM   34  C   UNL     1      13.740  -1.893 -14.986  1.00  0.00     0.116 A 
HETATM   35  C   UNL     1      13.065  -0.894 -15.673  1.00  0.00     0.044 A 
HETATM   36  F   UNL     1      13.929  -1.775 -13.664  1.00  0.00    -0.206 F 
HETATM   37  C   UNL     1      12.870  -1.016 -17.056  1.00  0.00     0.032 A 
ENDBRANCH  29  31
ENDBRANCH  26  27
ENDBRANCH  23  26
ENDBRANCH   5  14
TORSDOF 6
ENDMDL
MODEL 6
REMARK VINA RESULT:      -7.4      4.889      7.126
REMARK  6 active torsions:
REMARK  status: ('A' for Active; 'I' for Inactive)
REMARK    1  A    between atoms: C_5  and  C_13 
REMARK    2  A    between atoms: C_7  and  S_8 
REMARK    3  A    between atoms: S_8  and  N_11 
REMARK    4  A    between atoms: N_22  and  C_23 
REMARK    5  A    between atoms: C_23  and  C_24 
REMARK       I    between atoms: C_24  and  N_26 
REMARK    6  A    between atoms: N_26  and  C_27 
ROOT
HETATM    1  C   UNL     1      14.246  -6.384 -24.288  1.00  0.00     0.050 C 
HETATM    2  C   UNL     1      14.118  -5.745 -22.935  1.00  0.00    -0.039 C 
HETATM    3  C   UNL     1      14.187  -4.344 -22.827  1.00  0.00     0.009 C 
HETATM    4  C   UNL     1      14.133  -3.697 -21.578  1.00  0.00     0.014 C 
HETATM    5  C   UNL     1      13.953  -4.428 -20.396  1.00  0.00    -0.006 C 
HETATM    6  C   UNL     1      13.742  -5.801 -20.533  1.00  0.00     0.039 C 
HETATM    7  C   UNL     1      13.932  -6.472 -21.755  1.00  0.00     0.086 C 
ENDROOT
BRANCH   7   8
HETATM    8  S   UNL     1      13.980  -8.257 -21.654  1.00  0.00     0.259 S 
HETATM    9  O   UNL     1      12.755  -8.742 -22.249  1.00  0.00    -0.201 OA
HETATM   10  O   UNL     1      15.274  -8.769 -22.034  1.00  0.00    -0.201 OA
BRANCH   8  11
HETATM   11  N   UNL     1      13.812  -8.528 -19.990  1.00  0.00    -0.320 N 
HETATM   12  C   UNL     1      12.574  -9.144 -19.513  1.00  0.00     0.159 C 
HETATM   13  HN  UNL     1      14.157  -7.728 -19.456  1.00  0.00     0.171 HD
ENDBRANCH   8  11
ENDBRANCH   7   8
BRANCH   5  14
HETATM   14  C   UNL     1      14.047  -3.719 -19.054  1.00  0.00     0.065 C 
HETATM   15  C   UNL     1      13.159  -2.532 -18.758  1.00  0.00    -0.017 C 
HETATM   16  C   UNL     1      12.225  -1.898 -19.755  1.00  0.00     0.042 C 
HETATM   17  C   UNL     1      13.232  -2.029 -17.512  1.00  0.00     0.020 C 
HETATM   18  C   UNL     1      11.258  -0.862 -19.182  1.00  0.00     0.005 C 
HETATM   19  C   UNL     1      12.007   0.057 -18.234  1.00  0.00     0.005 C 
HETATM   20  C   UNL     1      12.550  -0.761 -17.066  1.00  0.00     0.045 C 
HETATM   21  C   UNL     1      14.023  -2.708 -16.463  1.00  0.00     0.269 C 
HETATM   22  O   UNL     1      13.913  -2.365 -15.288  1.00  0.00    -0.266 OA
HETATM   23  N   UNL     1      14.927  -3.653 -16.908  1.00  0.00    -0.248 N 
HETATM   24  N   UNL     1      14.882  -4.207 -18.176  1.00  0.00    -0.294 N 
HETATM   25  HN  UNL     1      15.493  -4.985 -18.421  1.00  0.00     0.187 HD
BRANCH  23  26
HETATM   26  C   UNL     1      15.728  -4.347 -15.901  1.00  0.00     0.255 C 
BRANCH  26  27
HETATM   27  C   UNL     1      16.583  -5.537 -16.377  1.00  0.00     0.242 C 
HETATM   28  O   UNL     1      17.539  -5.318 -17.124  1.00  0.00    -0.271 OA
HETATM   29  N   UNL     1      16.189  -6.794 -15.949  1.00  0.00    -0.326 N 
HETATM   30  HN  UNL     1      15.292  -6.846 -15.487  1.00  0.00     0.169 HD
BRANCH  29  31
HETATM   31  C   UNL     1      16.826  -8.023 -16.241  1.00  0.00     0.035 A 
HETATM   32  C   UNL     1      17.705  -8.658 -15.360  1.00  0.00     0.032 A 
HETATM   33  C   UNL     1      18.326  -9.864 -15.705  1.00  0.00     0.044 A 
HETATM   34  C   UNL     1      18.062 -10.432 -16.947  1.00  0.00     0.116 A 
HETATM   35  C   UNL     1      17.182  -9.830 -17.835  1.00  0.00     0.044 A 
HETATM   36  F   UNL     1      18.667 -11.578 -17.289  1.00  0.00    -0.206 F 
HETATM   37  C   UNL     1      16.547  -8.633 -17.475  1.00  0.00     0.032 A 
ENDBRANCH  29  31
ENDBRANCH  26  27
ENDBRANCH  23  26
ENDBRANCH   5  14
TORSDOF 6
ENDMDL
MODEL 7
REMARK VINA RESULT:      -7.4      2.442      3.540
REMARK  6 active torsions:
REMARK  status: ('A' for Active; 'I' for Inactive)
REMARK    1  A    between atoms: C_5  and  C_13 
REMARK    2  A    between atoms: C_7  and  S_8 
REMARK    3  A    between atoms: S_8  and  N_11 
REMARK    4  A    between atoms: N_22  and  C_23 
REMARK    5  A    between atoms: C_23  and  C_24 
REMARK       I    between atoms: C_24  and  N_26 
REMARK    6  A    between atoms: N_26  and  C_27 
ROOT
HETATM    1  C   UNL     1      10.746  -3.632 -22.378  1.00  0.00     0.050 C 
HETATM    2  C   UNL     1      11.563  -3.032 -21.269  1.00  0.00    -0.039 C 
HETATM    3  C   UNL     1      11.004  -2.009 -20.480  1.00  0.00     0.009 C 
HETATM    4  C   UNL     1      11.746  -1.371 -19.467  1.00  0.00     0.014 C 
HETATM    5  C   UNL     1      13.055  -1.773 -19.173  1.00  0.00    -0.006 C 
HETATM    6  C   UNL     1      13.543  -2.881 -19.865  1.00  0.00     0.039 C 
HETATM    7  C   UNL     1      12.867  -3.434 -20.969  1.00  0.00     0.086 C 
ENDROOT
BRANCH   7   8
HETATM    8  S   UNL     1      13.812  -4.596 -21.947  1.00  0.00     0.259 S 
HETATM    9  O   UNL     1      13.225  -5.899 -21.731  1.00  0.00    -0.201 OA
HETATM   10  O   UNL     1      14.071  -4.079 -23.270  1.00  0.00    -0.201 OA
BRANCH   8  11
HETATM   11  N   UNL     1      15.297  -4.629 -21.132  1.00  0.00    -0.320 N 
HETATM   12  C   UNL     1      15.852  -5.930 -20.763  1.00  0.00     0.159 C 
HETATM   13  HN  UNL     1      15.334  -3.899 -20.417  1.00  0.00     0.171 HD
ENDBRANCH   8  11
ENDBRANCH   7   8
BRANCH   5  14
HETATM   14  C   UNL     1      13.880  -0.969 -18.179  1.00  0.00     0.065 C 
HETATM   15  C   UNL     1      14.101  -1.493 -16.778  1.00  0.00    -0.017 C 
HETATM   16  C   UNL     1      13.464  -2.739 -16.224  1.00  0.00     0.042 C 
HETATM   17  C   UNL     1      14.928  -0.773 -15.997  1.00  0.00     0.020 C 
HETATM   18  C   UNL     1      14.002  -3.207 -14.872  1.00  0.00     0.005 C 
HETATM   19  C   UNL     1      14.140  -2.013 -13.944  1.00  0.00     0.005 C 
HETATM   20  C   UNL     1      15.155  -1.037 -14.531  1.00  0.00     0.045 C 
HETATM   21  C   UNL     1      15.688   0.371 -16.545  1.00  0.00     0.269 C 
HETATM   22  O   UNL     1      16.591   0.884 -15.887  1.00  0.00    -0.266 OA
HETATM   23  N   UNL     1      15.252   0.855 -17.763  1.00  0.00    -0.248 N 
HETATM   24  N   UNL     1      14.413   0.145 -18.604  1.00  0.00    -0.294 N 
HETATM   25  HN  UNL     1      14.213   0.487 -19.543  1.00  0.00     0.187 HD
BRANCH  23  26
HETATM   26  C   UNL     1      15.977   1.986 -18.338  1.00  0.00     0.255 C 
BRANCH  26  27
HETATM   27  C   UNL     1      16.969   1.683 -19.476  1.00  0.00     0.242 C 
HETATM   28  O   UNL     1      16.873   2.315 -20.530  1.00  0.00    -0.271 OA
HETATM   29  N   UNL     1      17.897   0.682 -19.241  1.00  0.00    -0.326 N 
HETATM   30  HN  UNL     1      17.753   0.130 -18.407  1.00  0.00     0.169 HD
BRANCH  29  31
HETATM   31  C   UNL     1      18.911   0.245 -20.125  1.00  0.00     0.035 A 
HETATM   32  C   UNL     1      20.104   0.943 -20.326  1.00  0.00     0.032 A 
HETATM   33  C   UNL     1      21.068   0.479 -21.228  1.00  0.00     0.044 A 
HETATM   34  C   UNL     1      20.826  -0.694 -21.936  1.00  0.00     0.116 A 
HETATM   35  C   UNL     1      19.656  -1.414 -21.745  1.00  0.00     0.044 A 
HETATM   36  F   UNL     1      21.739  -1.134 -22.814  1.00  0.00    -0.206 F 
HETATM   37  C   UNL     1      18.704  -0.956 -20.824  1.00  0.00     0.032 A 
ENDBRANCH  29  31
ENDBRANCH  26  27
ENDBRANCH  23  26
ENDBRANCH   5  14
TORSDOF 6
ENDMDL
MODEL 8
REMARK VINA RESULT:      -7.4      4.063      5.266
REMARK  6 active torsions:
REMARK  status: ('A' for Active; 'I' for Inactive)
REMARK    1  A    between atoms: C_5  and  C_13 
REMARK    2  A    between atoms: C_7  and  S_8 
REMARK    3  A    between atoms: S_8  and  N_11 
REMARK    4  A    between atoms: N_22  and  C_23 
REMARK    5  A    between atoms: C_23  and  C_24 
REMARK       I    between atoms: C_24  and  N_26 
REMARK    6  A    between atoms: N_26  and  C_27 
ROOT
HETATM    1  C   UNL     1      13.291  -9.775 -19.658  1.00  0.00     0.050 C 
HETATM    2  C   UNL     1      13.607  -8.462 -19.000  1.00  0.00    -0.039 C 
HETATM    3  C   UNL     1      12.555  -7.590 -18.665  1.00  0.00     0.009 C 
HETATM    4  C   UNL     1      12.799  -6.323 -18.103  1.00  0.00     0.014 C 
HETATM    5  C   UNL     1      14.103  -5.906 -17.805  1.00  0.00    -0.006 C 
HETATM    6  C   UNL     1      15.121  -6.838 -18.009  1.00  0.00     0.039 C 
HETATM    7  C   UNL     1      14.907  -8.047 -18.697  1.00  0.00     0.086 C 
ENDROOT
BRANCH   7   8
HETATM    8  S   UNL     1      16.385  -8.929 -19.183  1.00  0.00     0.259 S 
HETATM    9  O   UNL     1      16.644  -9.910 -18.154  1.00  0.00    -0.201 OA
HETATM   10  O   UNL     1      16.353  -9.274 -20.584  1.00  0.00    -0.201 OA
BRANCH   8  11
HETATM   11  N   UNL     1      17.586  -7.749 -18.995  1.00  0.00    -0.320 N 
HETATM   12  C   UNL     1      18.228  -7.221 -20.198  1.00  0.00     0.159 C 
HETATM   13  HN  UNL     1      18.204  -7.981 -18.215  1.00  0.00     0.171 HD
ENDBRANCH   8  11
ENDBRANCH   7   8
BRANCH   5  14
HETATM   14  C   UNL     1      14.346  -4.479 -17.338  1.00  0.00     0.065 C 
HETATM   15  C   UNL     1      14.297  -4.144 -15.865  1.00  0.00    -0.017 C 
HETATM   16  C   UNL     1      13.908  -5.116 -14.783  1.00  0.00     0.042 C 
HETATM   17  C   UNL     1      14.626  -2.883 -15.530  1.00  0.00     0.020 C 
HETATM   18  C   UNL     1      14.147  -4.635 -13.351  1.00  0.00     0.005 C 
HETATM   19  C   UNL     1      13.669  -3.201 -13.216  1.00  0.00     0.005 C 
HETATM   20  C   UNL     1      14.490  -2.310 -14.142  1.00  0.00     0.045 C 
HETATM   21  C   UNL     1      15.154  -1.940 -16.540  1.00  0.00     0.269 C 
HETATM   22  O   UNL     1      15.647  -0.871 -16.188  1.00  0.00    -0.266 OA
HETATM   23  N   UNL     1      14.966  -2.305 -17.859  1.00  0.00    -0.248 N 
HETATM   24  N   UNL     1      14.639  -3.592 -18.250  1.00  0.00    -0.294 N 
HETATM   25  HN  UNL     1      14.628  -3.844 -19.238  1.00  0.00     0.187 HD
BRANCH  23  26
HETATM   26  C   UNL     1      15.473  -1.399 -18.888  1.00  0.00     0.255 C 
BRANCH  26  27
HETATM   27  C   UNL     1      16.624  -1.912 -19.774  1.00  0.00     0.242 C 
HETATM   28  O   UNL     1      16.423  -2.886 -20.502  1.00  0.00    -0.271 OA
HETATM   29  N   UNL     1      17.836  -1.248 -19.664  1.00  0.00    -0.326 N 
HETATM   30  HN  UNL     1      17.911  -0.584 -18.906  1.00  0.00     0.169 HD
BRANCH  29  31
HETATM   31  C   UNL     1      19.020  -1.527 -20.385  1.00  0.00     0.035 A 
HETATM   32  C   UNL     1      20.012  -2.395 -19.921  1.00  0.00     0.032 A 
HETATM   33  C   UNL     1      21.176  -2.622 -20.664  1.00  0.00     0.044 A 
HETATM   34  C   UNL     1      21.344  -1.967 -21.879  1.00  0.00     0.116 A 
HETATM   35  C   UNL     1      20.369  -1.111 -22.370  1.00  0.00     0.044 A 
HETATM   36  F   UNL     1      22.465  -2.168 -22.587  1.00  0.00    -0.206 F 
HETATM   37  C   UNL     1      19.195  -0.904 -21.632  1.00  0.00     0.032 A 
ENDBRANCH  29  31
ENDBRANCH  26  27
ENDBRANCH  23  26
ENDBRANCH   5  14
TORSDOF 6
ENDMDL
MODEL 9
REMARK VINA RESULT:      -7.3      8.719     12.367
REMARK  6 active torsions:
REMARK  status: ('A' for Active; 'I' for Inactive)
REMARK    1  A    between atoms: C_5  and  C_13 
REMARK    2  A    between atoms: C_7  and  S_8 
REMARK    3  A    between atoms: S_8  and  N_11 
REMARK    4  A    between atoms: N_22  and  C_23 
REMARK    5  A    between atoms: C_23  and  C_24 
REMARK       I    between atoms: C_24  and  N_26 
REMARK    6  A    between atoms: N_26  and  C_27 
ROOT
HETATM    1  C   UNL     1      14.515  -5.169 -27.177  1.00  0.00     0.050 C 
HETATM    2  C   UNL     1      14.542  -6.196 -26.082  1.00  0.00    -0.039 C 
HETATM    3  C   UNL     1      14.008  -5.871 -24.821  1.00  0.00     0.009 C 
HETATM    4  C   UNL     1      14.061  -6.774 -23.743  1.00  0.00     0.014 C 
HETATM    5  C   UNL     1      14.601  -8.056 -23.904  1.00  0.00    -0.006 C 
HETATM    6  C   UNL     1      14.994  -8.414 -25.194  1.00  0.00     0.039 C 
HETATM    7  C   UNL     1      15.075  -7.478 -26.242  1.00  0.00     0.086 C 
ENDROOT
BRANCH   7   8
HETATM    8  S   UNL     1      15.943  -8.032 -27.705  1.00  0.00     0.259 S 
HETATM    9  O   UNL     1      14.962  -8.124 -28.763  1.00  0.00    -0.201 OA
HETATM   10  O   UNL     1      17.191  -7.328 -27.872  1.00  0.00    -0.201 OA
BRANCH   8  11
HETATM   11  N   UNL     1      16.330  -9.633 -27.308  1.00  0.00    -0.320 N 
HETATM   12  C   UNL     1      15.707 -10.705 -28.085  1.00  0.00     0.159 C 
HETATM   13  HN  UNL     1      16.353  -9.760 -26.294  1.00  0.00     0.171 HD
ENDBRANCH   8  11
ENDBRANCH   7   8
BRANCH   5  14
HETATM   14  C   UNL     1      14.780  -8.953 -22.689  1.00  0.00     0.065 C 
HETATM   15  C   UNL     1      15.593  -8.476 -21.507  1.00  0.00    -0.017 C 
HETATM   16  C   UNL     1      16.360  -7.181 -21.467  1.00  0.00     0.042 C 
HETATM   17  C   UNL     1      15.615  -9.287 -20.432  1.00  0.00     0.020 C 
HETATM   18  C   UNL     1      16.919  -6.790 -20.099  1.00  0.00     0.005 C 
HETATM   19  C   UNL     1      17.555  -8.006 -19.449  1.00  0.00     0.005 C 
HETATM   20  C   UNL     1      16.485  -9.069 -19.221  1.00  0.00     0.045 C 
HETATM   21  C   UNL     1      14.760 -10.493 -20.373  1.00  0.00     0.269 C 
HETATM   22  O   UNL     1      14.628 -11.103 -19.314  1.00  0.00    -0.266 OA
HETATM   23  N   UNL     1      14.225 -10.912 -21.575  1.00  0.00    -0.248 N 
HETATM   24  N   UNL     1      14.171 -10.108 -22.701  1.00  0.00    -0.294 N 
HETATM   25  HN  UNL     1      13.662 -10.414 -23.530  1.00  0.00     0.187 HD
BRANCH  23  26
HETATM   26  C   UNL     1      13.376 -12.101 -21.558  1.00  0.00     0.255 C 
BRANCH  26  27
HETATM   27  C   UNL     1      13.212 -12.870 -22.883  1.00  0.00     0.242 C 
HETATM   28  O   UNL     1      12.271 -12.579 -23.625  1.00  0.00    -0.271 OA
HETATM   29  N   UNL     1      14.134 -13.873 -23.136  1.00  0.00    -0.326 N 
HETATM   30  HN  UNL     1      14.742 -14.121 -22.369  1.00  0.00     0.169 HD
BRANCH  29  31
HETATM   31  C   UNL     1      14.193 -14.695 -24.286  1.00  0.00     0.035 A 
HETATM   32  C   UNL     1      14.829 -14.310 -25.469  1.00  0.00     0.032 A 
HETATM   33  C   UNL     1      14.842 -15.152 -26.587  1.00  0.00     0.044 A 
HETATM   34  C   UNL     1      14.208 -16.387 -26.514  1.00  0.00     0.116 A 
HETATM   35  C   UNL     1      13.580 -16.799 -25.347  1.00  0.00     0.044 A 
HETATM   36  F   UNL     1      14.202 -17.190 -27.588  1.00  0.00    -0.206 F 
HETATM   37  C   UNL     1      13.589 -15.961 -24.223  1.00  0.00     0.032 A 
ENDBRANCH  29  31
ENDBRANCH  26  27
ENDBRANCH  23  26
ENDBRANCH   5  14
TORSDOF 6
ENDMDL
