MODEL 1
REMARK VINA RESULT:      -6.9      0.000      0.000
REMARK  6 active torsions:
REMARK  status: ('A' for Active; 'I' for Inactive)
REMARK    1  A    between atoms: C_2  and  C_3 
REMARK    2  A    between atoms: C_2  and  N_17 
REMARK       I    between atoms: C_3  and  N_5 
REMARK    3  A    between atoms: N_5  and  C_6 
REMARK    4  A    between atoms: C_9  and  O_14 
REMARK    5  A    between atoms: C_11  and  O_12 
REMARK    6  A    between atoms: C_22  and  C_23 
ROOT
HETATM    1  C   UNL     1      13.087  -8.804 -28.665  1.00  0.00     0.044 C 
HETATM    2  C   UNL     1      14.535  -8.650 -28.198  1.00  0.00     0.199 C 
ENDROOT
BRANCH   2   3
HETATM    3  C   UNL     1      15.336  -9.945 -28.476  1.00  0.00     0.246 C 
HETATM    4  O   UNL     1      16.565  -9.979 -28.393  1.00  0.00    -0.271 OA
HETATM    5  N   UNL     1      14.560 -11.050 -28.816  1.00  0.00    -0.323 N 
HETATM    6  HN  UNL     1      13.564 -11.010 -28.607  1.00  0.00     0.169 HD
BRANCH   5   7
HETATM    7  C   UNL     1      15.109 -12.312 -29.150  1.00  0.00     0.070 A 
HETATM    8  C   UNL     1      15.689 -12.500 -30.413  1.00  0.00     0.059 A 
HETATM    9  C   UNL     1      16.159 -13.757 -30.811  1.00  0.00     0.069 A 
HETATM   10  C   UNL     1      16.093 -14.855 -29.944  1.00  0.00     0.092 A 
HETATM   11 CL   UNL     1      16.785 -13.919 -32.417  1.00  0.00    -0.081 Cl
HETATM   12  C   UNL     1      15.526 -14.665 -28.682  1.00  0.00     0.077 A 
HETATM   13  C   UNL     1      15.022 -13.414 -28.286  1.00  0.00     0.097 A 
BRANCH  10  14
HETATM   14  O   UNL     1      16.576 -16.051 -30.407  1.00  0.00    -0.354 OA
HETATM   15  C   UNL     1      16.434 -17.189 -29.567  1.00  0.00     0.210 C 
ENDBRANCH  10  14
BRANCH  13  16
HETATM   16  O   UNL     1      14.456 -13.439 -27.039  1.00  0.00    -0.354 OA
HETATM   17  C   UNL     1      15.017 -14.350 -26.105  1.00  0.00     0.210 C 
ENDBRANCH  13  16
ENDBRANCH   5   7
ENDBRANCH   2   3
BRANCH   2  18
HETATM   18  N   UNL     1      15.212  -7.475 -28.782  1.00  0.00    -0.244 N 
HETATM   19  C   UNL     1      15.429  -6.369 -27.981  1.00  0.00     0.262 A 
HETATM   20  O   UNL     1      15.119  -6.308 -26.793  1.00  0.00    -0.267 OA
HETATM   21  C   UNL     1      16.163  -5.242 -28.584  1.00  0.00     0.078 A 
HETATM   22  C   UNL     1      16.547  -5.290 -29.863  1.00  0.00     0.037 A 
HETATM   23  C   UNL     1      16.160  -6.490 -30.639  1.00  0.00     0.058 A 
HETATM   24  N   UNL     1      15.546  -7.513 -30.127  1.00  0.00    -0.294 N 
HETATM   25  HN  UNL     1      15.315  -8.325 -30.700  1.00  0.00     0.187 HD
BRANCH  23  26
HETATM   26  C   UNL     1      16.437  -6.440 -32.110  1.00  0.00    -0.008 A 
HETATM   27  C   UNL     1      16.599  -5.232 -32.803  1.00  0.00     0.014 A 
HETATM   28  C   UNL     1      16.736  -5.231 -34.195  1.00  0.00     0.001 A 
HETATM   29  C   UNL     1      16.729  -6.433 -34.900  1.00  0.00     0.000 A 
HETATM   30  C   UNL     1      16.607  -7.641 -34.213  1.00  0.00     0.001 A 
HETATM   31  C   UNL     1      16.469  -7.647 -32.821  1.00  0.00     0.014 A 
ENDBRANCH  23  26
ENDBRANCH   2  18
TORSDOF 6
ENDMDL
MODEL 2
REMARK VINA RESULT:      -6.8      1.454      2.119
REMARK  6 active torsions:
REMARK  status: ('A' for Active; 'I' for Inactive)
REMARK    1  A    between atoms: C_2  and  C_3 
REMARK    2  A    between atoms: C_2  and  N_17 
REMARK       I    between atoms: C_3  and  N_5 
REMARK    3  A    between atoms: N_5  and  C_6 
REMARK    4  A    between atoms: C_9  and  O_14 
REMARK    5  A    between atoms: C_11  and  O_12 
REMARK    6  A    between atoms: C_22  and  C_23 
ROOT
HETATM    1  C   UNL     1      12.914  -8.690 -28.788  1.00  0.00     0.044 C 
HETATM    2  C   UNL     1      14.330  -8.565 -28.223  1.00  0.00     0.199 C 
ENDROOT
BRANCH   2   3
HETATM    3  C   UNL     1      15.104  -9.893 -28.397  1.00  0.00     0.246 C 
HETATM    4  O   UNL     1      16.325  -9.958 -28.253  1.00  0.00    -0.271 OA
HETATM    5  N   UNL     1      14.312 -10.992 -28.721  1.00  0.00    -0.323 N 
HETATM    6  HN  UNL     1      13.308 -10.914 -28.563  1.00  0.00     0.169 HD
BRANCH   5   7
HETATM    7  C   UNL     1      14.839 -12.285 -28.966  1.00  0.00     0.070 A 
HETATM    8  C   UNL     1      14.773 -13.259 -27.959  1.00  0.00     0.059 A 
HETATM    9  C   UNL     1      15.364 -14.516 -28.134  1.00  0.00     0.069 A 
HETATM   10  C   UNL     1      16.007 -14.846 -29.333  1.00  0.00     0.092 A 
HETATM   11 CL   UNL     1      15.308 -15.630 -26.809  1.00  0.00    -0.081 Cl
HETATM   12  C   UNL     1      16.062 -13.880 -30.340  1.00  0.00     0.077 A 
HETATM   13  C   UNL     1      15.500 -12.604 -30.161  1.00  0.00     0.097 A 
BRANCH  10  14
HETATM   14  O   UNL     1      16.558 -16.098 -29.427  1.00  0.00    -0.354 OA
HETATM   15  C   UNL     1      15.789 -17.111 -30.063  1.00  0.00     0.210 C 
ENDBRANCH  10  14
BRANCH  13  16
HETATM   16  O   UNL     1      15.703 -11.778 -31.235  1.00  0.00    -0.354 OA
HETATM   17  C   UNL     1      15.928 -12.409 -32.487  1.00  0.00     0.210 C 
ENDBRANCH  13  16
ENDBRANCH   5   7
ENDBRANCH   2   3
BRANCH   2  18
HETATM   18  N   UNL     1      15.085  -7.434 -28.796  1.00  0.00    -0.244 N 
HETATM   19  C   UNL     1      15.369  -6.348 -27.988  1.00  0.00     0.262 A 
HETATM   20  O   UNL     1      15.055  -6.272 -26.802  1.00  0.00    -0.267 OA
HETATM   21  C   UNL     1      16.179  -5.268 -28.581  1.00  0.00     0.078 A 
HETATM   22  C   UNL     1      16.567  -5.335 -29.857  1.00  0.00     0.037 A 
HETATM   23  C   UNL     1      16.108  -6.504 -30.642  1.00  0.00     0.058 A 
HETATM   24  N   UNL     1      15.426  -7.487 -30.139  1.00  0.00    -0.294 N 
HETATM   25  HN  UNL     1      15.147  -8.279 -30.718  1.00  0.00     0.187 HD
BRANCH  23  26
HETATM   26  C   UNL     1      16.398  -6.465 -32.110  1.00  0.00    -0.008 A 
HETATM   27  C   UNL     1      16.602  -5.264 -32.804  1.00  0.00     0.014 A 
HETATM   28  C   UNL     1      16.750  -5.270 -34.195  1.00  0.00     0.001 A 
HETATM   29  C   UNL     1      16.713  -6.472 -34.898  1.00  0.00     0.000 A 
HETATM   30  C   UNL     1      16.550  -7.675 -34.209  1.00  0.00     0.001 A 
HETATM   31  C   UNL     1      16.400  -7.674 -32.819  1.00  0.00     0.014 A 
ENDBRANCH  23  26
ENDBRANCH   2  18
TORSDOF 6
ENDMDL
MODEL 3
REMARK VINA RESULT:      -6.8      9.971     12.998
REMARK  6 active torsions:
REMARK  status: ('A' for Active; 'I' for Inactive)
REMARK    1  A    between atoms: C_2  and  C_3 
REMARK    2  A    between atoms: C_2  and  N_17 
REMARK       I    between atoms: C_3  and  N_5 
REMARK    3  A    between atoms: N_5  and  C_6 
REMARK    4  A    between atoms: C_9  and  O_14 
REMARK    5  A    between atoms: C_11  and  O_12 
REMARK    6  A    between atoms: C_22  and  C_23 
ROOT
HETATM    1  C   UNL     1      18.381  -7.776 -20.148  1.00  0.00     0.044 C 
HETATM    2  C   UNL     1      16.999  -8.128 -19.596  1.00  0.00     0.199 C 
ENDROOT
BRANCH   2   3
HETATM    3  C   UNL     1      16.476  -6.998 -18.677  1.00  0.00     0.246 C 
HETATM    4  O   UNL     1      16.013  -5.951 -19.133  1.00  0.00    -0.271 OA
HETATM    5  N   UNL     1      16.568  -7.264 -17.313  1.00  0.00    -0.323 N 
HETATM    6  HN  UNL     1      16.710  -8.232 -17.030  1.00  0.00     0.169 HD
BRANCH   5   7
HETATM    7  C   UNL     1      16.186  -6.337 -16.312  1.00  0.00     0.070 A 
HETATM    8  C   UNL     1      14.863  -6.334 -15.844  1.00  0.00     0.059 A 
HETATM    9  C   UNL     1      14.428  -5.374 -14.924  1.00  0.00     0.069 A 
HETATM   10  C   UNL     1      15.310  -4.411 -14.419  1.00  0.00     0.092 A 
HETATM   11 CL   UNL     1      12.759  -5.391 -14.461  1.00  0.00    -0.081 Cl
HETATM   12  C   UNL     1      16.629  -4.421 -14.877  1.00  0.00     0.077 A 
HETATM   13  C   UNL     1      17.068  -5.361 -15.826  1.00  0.00     0.097 A 
BRANCH  10  14
HETATM   14  O   UNL     1      14.807  -3.508 -13.520  1.00  0.00    -0.354 OA
HETATM   15  C   UNL     1      14.451  -2.220 -14.007  1.00  0.00     0.210 C 
ENDBRANCH  10  14
BRANCH  13  16
HETATM   16  O   UNL     1      18.375  -5.178 -16.192  1.00  0.00    -0.354 OA
HETATM   17  C   UNL     1      18.619  -4.235 -17.224  1.00  0.00     0.210 C 
ENDBRANCH  13  16
ENDBRANCH   5   7
ENDBRANCH   2   3
BRANCH   2  18
HETATM   18  N   UNL     1      16.017  -8.448 -20.650  1.00  0.00    -0.244 N 
HETATM   19  C   UNL     1      15.451  -9.710 -20.669  1.00  0.00     0.262 A 
HETATM   20  O   UNL     1      15.693 -10.585 -19.840  1.00  0.00    -0.267 OA
HETATM   21  C   UNL     1      14.430  -9.968 -21.700  1.00  0.00     0.078 A 
HETATM   22  C   UNL     1      14.117  -9.028 -22.595  1.00  0.00     0.037 A 
HETATM   23  C   UNL     1      14.872  -7.755 -22.528  1.00  0.00     0.058 A 
HETATM   24  N   UNL     1      15.750  -7.485 -21.611  1.00  0.00    -0.294 N 
HETATM   25  HN  UNL     1      16.233  -6.586 -21.598  1.00  0.00     0.187 HD
BRANCH  23  26
HETATM   26  C   UNL     1      14.637  -6.791 -23.649  1.00  0.00    -0.008 A 
HETATM   27  C   UNL     1      14.092  -5.515 -23.441  1.00  0.00     0.014 A 
HETATM   28  C   UNL     1      13.779  -4.696 -24.530  1.00  0.00     0.001 A 
HETATM   29  C   UNL     1      14.023  -5.136 -25.830  1.00  0.00     0.000 A 
HETATM   30  C   UNL     1      14.602  -6.388 -26.043  1.00  0.00     0.001 A 
HETATM   31  C   UNL     1      14.915  -7.211 -24.956  1.00  0.00     0.014 A 
ENDBRANCH  23  26
ENDBRANCH   2  18
TORSDOF 6
ENDMDL
MODEL 4
REMARK VINA RESULT:      -6.7     11.144     14.321
REMARK  6 active torsions:
REMARK  status: ('A' for Active; 'I' for Inactive)
REMARK    1  A    between atoms: C_2  and  C_3 
REMARK    2  A    between atoms: C_2  and  N_17 
REMARK       I    between atoms: C_3  and  N_5 
REMARK    3  A    between atoms: N_5  and  C_6 
REMARK    4  A    between atoms: C_9  and  O_14 
REMARK    5  A    between atoms: C_11  and  O_12 
REMARK    6  A    between atoms: C_22  and  C_23 
ROOT
HETATM    1  C   UNL     1      14.121  -3.485 -15.953  1.00  0.00     0.044 C 
HETATM    2  C   UNL     1      14.501  -2.313 -16.859  1.00  0.00     0.199 C 
ENDROOT
BRANCH   2   3
HETATM    3  C   UNL     1      15.867  -2.572 -17.539  1.00  0.00     0.246 C 
HETATM    4  O   UNL     1      16.212  -3.700 -17.896  1.00  0.00    -0.271 OA
HETATM    5  N   UNL     1      16.657  -1.438 -17.713  1.00  0.00    -0.323 N 
HETATM    6  HN  UNL     1      16.203  -0.530 -17.637  1.00  0.00     0.169 HD
BRANCH   5   7
HETATM    7  C   UNL     1      17.958  -1.476 -18.273  1.00  0.00     0.070 A 
HETATM    8  C   UNL     1      18.128  -1.217 -19.642  1.00  0.00     0.059 A 
HETATM    9  C   UNL     1      19.385  -1.336 -20.246  1.00  0.00     0.069 A 
HETATM   10  C   UNL     1      20.513  -1.682 -19.494  1.00  0.00     0.092 A 
HETATM   11 CL   UNL     1      19.491  -1.078 -21.955  1.00  0.00    -0.081 Cl
HETATM   12  C   UNL     1      20.346  -1.928 -18.129  1.00  0.00     0.077 A 
HETATM   13  C   UNL     1      19.082  -1.844 -17.519  1.00  0.00     0.097 A 
BRANCH  10  14
HETATM   14  O   UNL     1      21.708  -1.774 -20.159  1.00  0.00    -0.354 OA
HETATM   15  C   UNL     1      22.900  -1.616 -19.399  1.00  0.00     0.210 C 
ENDBRANCH  10  14
BRANCH  13  16
HETATM   16  O   UNL     1      19.109  -2.174 -16.190  1.00  0.00    -0.354 OA
HETATM   17  C   UNL     1      19.194  -3.557 -15.882  1.00  0.00     0.210 C 
ENDBRANCH  13  16
ENDBRANCH   5   7
ENDBRANCH   2   3
BRANCH   2  18
HETATM   18  N   UNL     1      13.466  -1.993 -17.861  1.00  0.00    -0.244 N 
HETATM   19  C   UNL     1      12.433  -1.147 -17.500  1.00  0.00     0.262 A 
HETATM   20  O   UNL     1      12.333  -0.614 -16.397  1.00  0.00    -0.267 OA
HETATM   21  C   UNL     1      11.454  -0.804 -18.548  1.00  0.00     0.078 A 
HETATM   22  C   UNL     1      11.552  -1.337 -19.768  1.00  0.00     0.037 A 
HETATM   23  C   UNL     1      12.646  -2.310 -19.993  1.00  0.00     0.058 A 
HETATM   24  N   UNL     1      13.544  -2.605 -19.102  1.00  0.00    -0.294 N 
HETATM   25  HN  UNL     1      14.289  -3.270 -19.311  1.00  0.00     0.187 HD
BRANCH  23  26
HETATM   26  C   UNL     1      12.626  -3.032 -21.305  1.00  0.00    -0.008 A 
HETATM   27  C   UNL     1      13.767  -3.647 -21.841  1.00  0.00     0.014 A 
HETATM   28  C   UNL     1      13.730  -4.204 -23.123  1.00  0.00     0.001 A 
HETATM   29  C   UNL     1      12.554  -4.166 -23.869  1.00  0.00     0.000 A 
HETATM   30  C   UNL     1      11.405  -3.590 -23.327  1.00  0.00     0.001 A 
HETATM   31  C   UNL     1      11.437  -3.031 -22.046  1.00  0.00     0.014 A 
ENDBRANCH  23  26
ENDBRANCH   2  18
TORSDOF 6
ENDMDL
MODEL 5
REMARK VINA RESULT:      -6.7      7.313      9.345
REMARK  6 active torsions:
REMARK  status: ('A' for Active; 'I' for Inactive)
REMARK    1  A    between atoms: C_2  and  C_3 
REMARK    2  A    between atoms: C_2  and  N_17 
REMARK       I    between atoms: C_3  and  N_5 
REMARK    3  A    between atoms: N_5  and  C_6 
REMARK    4  A    between atoms: C_9  and  O_14 
REMARK    5  A    between atoms: C_11  and  O_12 
REMARK    6  A    between atoms: C_22  and  C_23 
ROOT
HETATM    1  C   UNL     1      11.832  -7.208 -22.075  1.00  0.00     0.044 C 
HETATM    2  C   UNL     1      13.017  -6.248 -22.198  1.00  0.00     0.199 C 
ENDROOT
BRANCH   2   3
HETATM    3  C   UNL     1      14.198  -6.728 -21.321  1.00  0.00     0.246 C 
HETATM    4  O   UNL     1      15.359  -6.383 -21.548  1.00  0.00    -0.271 OA
HETATM    5  N   UNL     1      13.840  -7.564 -20.267  1.00  0.00    -0.323 N 
HETATM    6  HN  UNL     1      12.859  -7.586 -19.992  1.00  0.00     0.169 HD
BRANCH   5   7
HETATM    7  C   UNL     1      14.782  -8.144 -19.380  1.00  0.00     0.070 A 
HETATM    8  C   UNL     1      15.099  -7.485 -18.183  1.00  0.00     0.059 A 
HETATM    9  C   UNL     1      16.091  -7.981 -17.329  1.00  0.00     0.069 A 
HETATM   10  C   UNL     1      16.768  -9.169 -17.629  1.00  0.00     0.092 A 
HETATM   11 CL   UNL     1      16.477  -7.062 -15.913  1.00  0.00    -0.081 Cl
HETATM   12  C   UNL     1      16.443  -9.831 -18.815  1.00  0.00     0.077 A 
HETATM   13  C   UNL     1      15.473  -9.323 -19.696  1.00  0.00     0.097 A 
BRANCH  10  14
HETATM   14  O   UNL     1      17.723  -9.590 -16.741  1.00  0.00    -0.354 OA
HETATM   15  C   UNL     1      18.294 -10.877 -16.946  1.00  0.00     0.210 C 
ENDBRANCH  10  14
BRANCH  13  16
HETATM   16  O   UNL     1      15.334 -10.080 -20.829  1.00  0.00    -0.354 OA
HETATM   17  C   UNL     1      14.902 -11.420 -20.648  1.00  0.00     0.210 C 
ENDBRANCH  13  16
ENDBRANCH   5   7
ENDBRANCH   2   3
BRANCH   2  18
HETATM   18  N   UNL     1      13.448  -6.033 -23.593  1.00  0.00    -0.244 N 
HETATM   19  C   UNL     1      12.996  -4.910 -24.261  1.00  0.00     0.262 A 
HETATM   20  O   UNL     1      12.274  -4.053 -23.757  1.00  0.00    -0.267 OA
HETATM   21  C   UNL     1      13.500  -4.701 -25.631  1.00  0.00     0.078 A 
HETATM   22  C   UNL     1      14.315  -5.595 -26.197  1.00  0.00     0.037 A 
HETATM   23  C   UNL     1      14.639  -6.807 -25.410  1.00  0.00     0.058 A 
HETATM   24  N   UNL     1      14.240  -7.002 -24.190  1.00  0.00    -0.294 N 
HETATM   25  HN  UNL     1      14.504  -7.847 -23.683  1.00  0.00     0.187 HD
BRANCH  23  26
HETATM   26  C   UNL     1      15.399  -7.877 -26.131  1.00  0.00    -0.008 A 
HETATM   27  C   UNL     1      16.430  -7.585 -27.037  1.00  0.00     0.014 A 
HETATM   28  C   UNL     1      17.029  -8.610 -27.776  1.00  0.00     0.001 A 
HETATM   29  C   UNL     1      16.618  -9.929 -27.604  1.00  0.00     0.000 A 
HETATM   30  C   UNL     1      15.621 -10.232 -26.676  1.00  0.00     0.001 A 
HETATM   31  C   UNL     1      15.017  -9.210 -25.936  1.00  0.00     0.014 A 
ENDBRANCH  23  26
ENDBRANCH   2  18
TORSDOF 6
ENDMDL
MODEL 6
REMARK VINA RESULT:      -6.7     10.865     13.211
REMARK  6 active torsions:
REMARK  status: ('A' for Active; 'I' for Inactive)
REMARK    1  A    between atoms: C_2  and  C_3 
REMARK    2  A    between atoms: C_2  and  N_17 
REMARK       I    between atoms: C_3  and  N_5 
REMARK    3  A    between atoms: N_5  and  C_6 
REMARK    4  A    between atoms: C_9  and  O_14 
REMARK    5  A    between atoms: C_11  and  O_12 
REMARK    6  A    between atoms: C_22  and  C_23 
ROOT
HETATM    1  C   UNL     1      13.861  -4.547 -14.401  1.00  0.00     0.044 C 
HETATM    2  C   UNL     1      14.593  -3.976 -15.617  1.00  0.00     0.199 C 
ENDROOT
BRANCH   2   3
HETATM    3  C   UNL     1      15.021  -5.113 -16.576  1.00  0.00     0.246 C 
HETATM    4  O   UNL     1      15.720  -4.898 -17.567  1.00  0.00    -0.271 OA
HETATM    5  N   UNL     1      14.559  -6.379 -16.225  1.00  0.00    -0.323 N 
HETATM    6  HN  UNL     1      14.220  -6.510 -15.273  1.00  0.00     0.169 HD
BRANCH   5   7
HETATM    7  C   UNL     1      14.805  -7.539 -17.000  1.00  0.00     0.070 A 
HETATM    8  C   UNL     1      16.000  -8.250 -16.817  1.00  0.00     0.059 A 
HETATM    9  C   UNL     1      16.317  -9.346 -17.628  1.00  0.00     0.069 A 
HETATM   10  C   UNL     1      15.432  -9.784 -18.621  1.00  0.00     0.092 A 
HETATM   11 CL   UNL     1      17.850 -10.116 -17.390  1.00  0.00    -0.081 Cl
HETATM   12  C   UNL     1      14.237  -9.083 -18.794  1.00  0.00     0.077 A 
HETATM   13  C   UNL     1      13.925  -7.961 -18.007  1.00  0.00     0.097 A 
BRANCH  10  14
HETATM   14  O   UNL     1      15.814 -10.866 -19.370  1.00  0.00    -0.354 OA
HETATM   15  C   UNL     1      15.132 -11.092 -20.597  1.00  0.00     0.210 C 
ENDBRANCH  10  14
BRANCH  13  16
HETATM   16  O   UNL     1      12.738  -7.375 -18.362  1.00  0.00    -0.354 OA
HETATM   17  C   UNL     1      12.791  -6.423 -19.413  1.00  0.00     0.210 C 
ENDBRANCH  13  16
ENDBRANCH   5   7
ENDBRANCH   2   3
BRANCH   2  18
HETATM   18  N   UNL     1      13.815  -2.946 -16.333  1.00  0.00    -0.244 N 
HETATM   19  C   UNL     1      13.499  -1.774 -15.670  1.00  0.00     0.262 A 
HETATM   20  O   UNL     1      13.851  -1.517 -14.521  1.00  0.00    -0.267 OA
HETATM   21  C   UNL     1      12.775  -0.746 -16.441  1.00  0.00     0.078 A 
HETATM   22  C   UNL     1      12.409  -0.979 -17.704  1.00  0.00     0.037 A 
HETATM   23  C   UNL     1      12.718  -2.316 -18.261  1.00  0.00     0.058 A 
HETATM   24  N   UNL     1      13.385  -3.227 -17.621  1.00  0.00    -0.294 N 
HETATM   25  HN  UNL     1      13.588  -4.128 -18.055  1.00  0.00     0.187 HD
BRANCH  23  26
HETATM   26  C   UNL     1      12.138  -2.618 -19.608  1.00  0.00    -0.008 A 
HETATM   27  C   UNL     1      10.754  -2.670 -19.835  1.00  0.00     0.014 A 
HETATM   28  C   UNL     1      10.259  -3.075 -21.078  1.00  0.00     0.001 A 
HETATM   29  C   UNL     1      11.138  -3.412 -22.106  1.00  0.00     0.000 A 
HETATM   30  C   UNL     1      12.515  -3.324 -21.899  1.00  0.00     0.001 A 
HETATM   31  C   UNL     1      13.015  -2.922 -20.657  1.00  0.00     0.014 A 
ENDBRANCH  23  26
ENDBRANCH   2  18
TORSDOF 6
ENDMDL
MODEL 7
REMARK VINA RESULT:      -6.6     12.698     16.169
REMARK  6 active torsions:
REMARK  status: ('A' for Active; 'I' for Inactive)
REMARK    1  A    between atoms: C_2  and  C_3 
REMARK    2  A    between atoms: C_2  and  N_17 
REMARK       I    between atoms: C_3  and  N_5 
REMARK    3  A    between atoms: N_5  and  C_6 
REMARK    4  A    between atoms: C_9  and  O_14 
REMARK    5  A    between atoms: C_11  and  O_12 
REMARK    6  A    between atoms: C_22  and  C_23 
ROOT
HETATM    1  C   UNL     1      13.737  -4.245 -16.322  1.00  0.00     0.044 C 
HETATM    2  C   UNL     1      13.732  -2.716 -16.379  1.00  0.00     0.199 C 
ENDROOT
BRANCH   2   3
HETATM    3  C   UNL     1      15.176  -2.165 -16.299  1.00  0.00     0.246 C 
HETATM    4  O   UNL     1      15.798  -1.823 -17.306  1.00  0.00    -0.271 OA
HETATM    5  N   UNL     1      15.700  -2.087 -15.011  1.00  0.00    -0.323 N 
HETATM    6  HN  UNL     1      15.046  -2.135 -14.231  1.00  0.00     0.169 HD
BRANCH   5   7
HETATM    7  C   UNL     1      17.020  -1.652 -14.734  1.00  0.00     0.070 A 
HETATM    8  C   UNL     1      18.039  -2.602 -14.570  1.00  0.00     0.059 A 
HETATM    9  C   UNL     1      19.333  -2.214 -14.205  1.00  0.00     0.069 A 
HETATM   10  C   UNL     1      19.654  -0.862 -14.030  1.00  0.00     0.092 A 
HETATM   11 CL   UNL     1      20.510  -3.457 -13.943  1.00  0.00    -0.081 Cl
HETATM   12  C   UNL     1      18.643   0.084 -14.205  1.00  0.00     0.077 A 
HETATM   13  C   UNL     1      17.332  -0.298 -14.538  1.00  0.00     0.097 A 
BRANCH  10  14
HETATM   14  O   UNL     1      20.944  -0.563 -13.676  1.00  0.00    -0.354 OA
HETATM   15  C   UNL     1      21.836  -0.162 -14.709  1.00  0.00     0.210 C 
ENDBRANCH  10  14
BRANCH  13  16
HETATM   16  O   UNL     1      16.469   0.764 -14.612  1.00  0.00    -0.354 OA
HETATM   17  C   UNL     1      16.433   1.467 -15.844  1.00  0.00     0.210 C 
ENDBRANCH  13  16
ENDBRANCH   5   7
ENDBRANCH   2   3
BRANCH   2  18
HETATM   18  N   UNL     1      13.028  -2.182 -17.561  1.00  0.00    -0.244 N 
HETATM   19  C   UNL     1      12.164  -1.115 -17.392  1.00  0.00     0.262 A 
HETATM   20  O   UNL     1      11.963  -0.556 -16.315  1.00  0.00    -0.267 OA
HETATM   21  C   UNL     1      11.529  -0.572 -18.606  1.00  0.00     0.078 A 
HETATM   22  C   UNL     1      11.753  -1.132 -19.797  1.00  0.00     0.037 A 
HETATM   23  C   UNL     1      12.618  -2.334 -19.825  1.00  0.00     0.058 A 
HETATM   24  N   UNL     1      13.220  -2.814 -18.779  1.00  0.00    -0.294 N 
HETATM   25  HN  UNL     1      13.819  -3.636 -18.853  1.00  0.00     0.187 HD
BRANCH  23  26
HETATM   26  C   UNL     1      12.706  -3.052 -21.137  1.00  0.00    -0.008 A 
HETATM   27  C   UNL     1      13.910  -3.581 -21.624  1.00  0.00     0.014 A 
HETATM   28  C   UNL     1      13.968  -4.135 -22.906  1.00  0.00     0.001 A 
HETATM   29  C   UNL     1      12.825  -4.181 -23.702  1.00  0.00     0.000 A 
HETATM   30  C   UNL     1      11.615  -3.692 -23.208  1.00  0.00     0.001 A 
HETATM   31  C   UNL     1      11.552  -3.135 -21.927  1.00  0.00     0.014 A 
ENDBRANCH  23  26
ENDBRANCH   2  18
TORSDOF 6
ENDMDL
MODEL 8
REMARK VINA RESULT:      -6.6     10.774     13.185
REMARK  6 active torsions:
REMARK  status: ('A' for Active; 'I' for Inactive)
REMARK    1  A    between atoms: C_2  and  C_3 
REMARK    2  A    between atoms: C_2  and  N_17 
REMARK       I    between atoms: C_3  and  N_5 
REMARK    3  A    between atoms: N_5  and  C_6 
REMARK    4  A    between atoms: C_9  and  O_14 
REMARK    5  A    between atoms: C_11  and  O_12 
REMARK    6  A    between atoms: C_22  and  C_23 
ROOT
HETATM    1  C   UNL     1      13.577  -2.905 -15.146  1.00  0.00     0.044 C 
HETATM    2  C   UNL     1      14.295  -2.552 -16.450  1.00  0.00     0.199 C 
ENDROOT
BRANCH   2   3
HETATM    3  C   UNL     1      15.138  -3.750 -16.948  1.00  0.00     0.246 C 
HETATM    4  O   UNL     1      16.084  -3.602 -17.723  1.00  0.00    -0.271 OA
HETATM    5  N   UNL     1      14.745  -4.989 -16.448  1.00  0.00    -0.323 N 
HETATM    6  HN  UNL     1      14.142  -4.997 -15.627  1.00  0.00     0.169 HD
BRANCH   5   7
HETATM    7  C   UNL     1      15.361  -6.209 -16.820  1.00  0.00     0.070 A 
HETATM    8  C   UNL     1      14.838  -6.948 -17.892  1.00  0.00     0.059 A 
HETATM    9  C   UNL     1      15.364  -8.200 -18.228  1.00  0.00     0.069 A 
HETATM   10  C   UNL     1      16.452  -8.734 -17.526  1.00  0.00     0.092 A 
HETATM   11 CL   UNL     1      14.605  -9.081 -19.512  1.00  0.00    -0.081 Cl
HETATM   12  C   UNL     1      16.980  -7.993 -16.467  1.00  0.00     0.077 A 
HETATM   13  C   UNL     1      16.437  -6.750 -16.100  1.00  0.00     0.097 A 
BRANCH  10  14
HETATM   14  O   UNL     1      16.911  -9.964 -17.919  1.00  0.00    -0.354 OA
HETATM   15  C   UNL     1      18.042 -10.494 -17.240  1.00  0.00     0.210 C 
ENDBRANCH  10  14
BRANCH  13  16
HETATM   16  O   UNL     1      17.053  -6.202 -15.006  1.00  0.00    -0.354 OA
HETATM   17  C   UNL     1      18.092  -5.270 -15.262  1.00  0.00     0.210 C 
ENDBRANCH  13  16
ENDBRANCH   5   7
ENDBRANCH   2   3
BRANCH   2  18
HETATM   18  N   UNL     1      13.381  -2.074 -17.505  1.00  0.00    -0.244 N 
HETATM   19  C   UNL     1      12.425  -1.130 -17.177  1.00  0.00     0.262 A 
HETATM   20  O   UNL     1      12.302  -0.635 -16.059  1.00  0.00    -0.267 OA
HETATM   21  C   UNL     1      11.573  -0.635 -18.273  1.00  0.00     0.078 A 
HETATM   22  C   UNL     1      11.704  -1.126 -19.508  1.00  0.00     0.037 A 
HETATM   23  C   UNL     1      12.696  -2.208 -19.703  1.00  0.00     0.058 A 
HETATM   24  N   UNL     1      13.485  -2.640 -18.766  1.00  0.00    -0.294 N 
HETATM   25  HN  UNL     1      14.164  -3.377 -18.954  1.00  0.00     0.187 HD
BRANCH  23  26
HETATM   26  C   UNL     1      12.695  -2.868 -21.047  1.00  0.00    -0.008 A 
HETATM   27  C   UNL     1      11.534  -2.986 -21.825  1.00  0.00     0.014 A 
HETATM   28  C   UNL     1      11.556  -3.716 -23.018  1.00  0.00     0.001 A 
HETATM   29  C   UNL     1      12.737  -4.316 -23.449  1.00  0.00     0.000 A 
HETATM   30  C   UNL     1      13.905  -4.169 -22.700  1.00  0.00     0.001 A 
HETATM   31  C   UNL     1      13.888  -3.442 -21.506  1.00  0.00     0.014 A 
ENDBRANCH  23  26
ENDBRANCH   2  18
TORSDOF 6
ENDMDL
MODEL 9
REMARK VINA RESULT:      -6.6     12.105     14.086
REMARK  6 active torsions:
REMARK  status: ('A' for Active; 'I' for Inactive)
REMARK    1  A    between atoms: C_2  and  C_3 
REMARK    2  A    between atoms: C_2  and  N_17 
REMARK       I    between atoms: C_3  and  N_5 
REMARK    3  A    between atoms: N_5  and  C_6 
REMARK    4  A    between atoms: C_9  and  O_14 
REMARK    5  A    between atoms: C_11  and  O_12 
REMARK    6  A    between atoms: C_22  and  C_23 
ROOT
HETATM    1  C   UNL     1      15.606   0.023 -17.067  1.00  0.00     0.044 C 
HETATM    2  C   UNL     1      15.669  -1.487 -16.828  1.00  0.00     0.199 C 
ENDROOT
BRANCH   2   3
HETATM    3  C   UNL     1      14.535  -2.207 -17.596  1.00  0.00     0.246 C 
HETATM    4  O   UNL     1      14.001  -3.228 -17.160  1.00  0.00    -0.271 OA
HETATM    5  N   UNL     1      14.172  -1.607 -18.799  1.00  0.00    -0.323 N 
HETATM    6  HN  UNL     1      14.466  -0.644 -18.955  1.00  0.00     0.169 HD
BRANCH   5   7
HETATM    7  C   UNL     1      13.187  -2.139 -19.667  1.00  0.00     0.070 A 
HETATM    8  C   UNL     1      13.583  -2.913 -20.769  1.00  0.00     0.059 A 
HETATM    9  C   UNL     1      12.645  -3.377 -21.697  1.00  0.00     0.069 A 
HETATM   10  C   UNL     1      11.280  -3.112 -21.532  1.00  0.00     0.092 A 
HETATM   11 CL   UNL     1      13.228  -4.255 -23.071  1.00  0.00    -0.081 Cl
HETATM   12  C   UNL     1      10.884  -2.352 -20.430  1.00  0.00     0.077 A 
HETATM   13  C   UNL     1      11.823  -1.853 -19.510  1.00  0.00     0.097 A 
BRANCH  10  14
HETATM   14  O   UNL     1      10.424  -3.605 -22.483  1.00  0.00    -0.354 OA
HETATM   15  C   UNL     1       9.048  -3.713 -22.141  1.00  0.00     0.210 C 
ENDBRANCH  10  14
BRANCH  13  16
HETATM   16  O   UNL     1      11.251  -1.085 -18.530  1.00  0.00    -0.354 OA
HETATM   17  C   UNL     1      11.389   0.321 -18.664  1.00  0.00     0.210 C 
ENDBRANCH  13  16
ENDBRANCH   5   7
ENDBRANCH   2   3
BRANCH   2  18
HETATM   18  N   UNL     1      16.983  -2.073 -17.157  1.00  0.00    -0.244 N 
HETATM   19  C   UNL     1      17.615  -2.859 -16.210  1.00  0.00     0.262 A 
HETATM   20  O   UNL     1      17.137  -3.130 -15.111  1.00  0.00    -0.267 OA
HETATM   21  C   UNL     1      18.896  -3.475 -16.601  1.00  0.00     0.078 A 
HETATM   22  C   UNL     1      19.427  -3.230 -17.802  1.00  0.00     0.037 A 
HETATM   23  C   UNL     1      18.700  -2.287 -18.682  1.00  0.00     0.058 A 
HETATM   24  N   UNL     1      17.553  -1.758 -18.381  1.00  0.00    -0.294 N 
HETATM   25  HN  UNL     1      17.083  -1.125 -19.029  1.00  0.00     0.187 HD
BRANCH  23  26
HETATM   26  C   UNL     1      19.404  -1.886 -19.942  1.00  0.00    -0.008 A 
HETATM   27  C   UNL     1      18.774  -1.137 -20.947  1.00  0.00     0.014 A 
HETATM   28  C   UNL     1      19.432  -0.890 -22.157  1.00  0.00     0.001 A 
HETATM   29  C   UNL     1      20.723  -1.371 -22.363  1.00  0.00     0.000 A 
HETATM   30  C   UNL     1      21.370  -2.083 -21.352  1.00  0.00     0.001 A 
HETATM   31  C   UNL     1      20.716  -2.334 -20.141  1.00  0.00     0.014 A 
ENDBRANCH  23  26
ENDBRANCH   2  18
TORSDOF 6
ENDMDL
