MODEL 1
REMARK VINA RESULT:      -6.9      0.000      0.000
REMARK  2 active torsions:
REMARK  status: ('A' for Active; 'I' for Inactive)
REMARK    1  A    between atoms: N_9  and  C_10 
REMARK    2  A    between atoms: C_10  and  C_11 
ROOT
HETATM    1  C   UNL     1      23.571 -15.174 -18.238  1.00  0.00     0.001 A 
HETATM    2  C   UNL     1      23.999 -15.733 -19.462  1.00  0.00     0.001 A 
HETATM    3  C   UNL     1      24.774 -14.990 -20.356  1.00  0.00     0.018 A 
HETATM    4  C   UNL     1      25.099 -13.699 -19.986  1.00  0.00     0.048 A 
HETATM    5  C   UNL     1      24.686 -13.150 -18.785  1.00  0.00     0.048 A 
HETATM    6  C   UNL     1      23.916 -13.863 -17.887  1.00  0.00     0.018 A 
HETATM    7  C   UNL     1      25.213 -11.785 -18.721  1.00  0.00     0.262 A 
HETATM    8  O   UNL     1      25.032 -11.022 -17.793  1.00  0.00    -0.267 OA
HETATM    9  N   UNL     1      25.908 -11.585 -19.881  1.00  0.00    -0.276 N 
HETATM   10  C   UNL     1      25.875 -12.684 -20.693  1.00  0.00     0.262 A 
HETATM   11  O   UNL     1      26.366 -12.836 -21.795  1.00  0.00    -0.267 OA
ENDROOT
BRANCH   9  12
HETATM   12  C   UNL     1      26.617 -10.368 -20.213  1.00  0.00     0.175 C 
BRANCH  12  13
HETATM   13  C   UNL     1      25.677  -9.284 -20.665  1.00  0.00    -0.024 A 
HETATM   14  C   UNL     1      25.746  -7.992 -20.136  1.00  0.00     0.011 A 
HETATM   15  C   UNL     1      24.896  -7.002 -20.618  1.00  0.00     0.018 A 
HETATM   16  C   UNL     1      24.002  -7.336 -21.621  1.00  0.00     0.087 A 
HETATM   17  N   UNL     1      23.902  -8.572 -22.154  1.00  0.00    -0.375 N 
HETATM   18  C   UNL     1      24.740  -9.516 -21.669  1.00  0.00     0.096 A 
HETATM   19  HN  UNL     1      23.226  -8.783 -22.888  1.00  0.00     0.164 HD
ENDBRANCH  12  13
ENDBRANCH   9  12
TORSDOF 2
ENDMDL
MODEL 2
REMARK VINA RESULT:      -6.4      3.291      4.905
REMARK  2 active torsions:
REMARK  status: ('A' for Active; 'I' for Inactive)
REMARK    1  A    between atoms: N_9  and  C_10 
REMARK    2  A    between atoms: C_10  and  C_11 
ROOT
HETATM    1  C   UNL     1      26.194 -14.801 -12.857  1.00  0.00     0.001 A 
HETATM    2  C   UNL     1      26.270 -16.089 -13.430  1.00  0.00     0.001 A 
HETATM    3  C   UNL     1      25.864 -16.312 -14.748  1.00  0.00     0.018 A 
HETATM    4  C   UNL     1      25.392 -15.222 -15.454  1.00  0.00     0.048 A 
HETATM    5  C   UNL     1      25.321 -13.957 -14.898  1.00  0.00     0.048 A 
HETATM    6  C   UNL     1      25.713 -13.713 -13.596  1.00  0.00     0.018 A 
HETATM    7  C   UNL     1      24.788 -13.056 -15.921  1.00  0.00     0.262 A 
HETATM    8  O   UNL     1      24.597 -11.867 -15.758  1.00  0.00    -0.267 OA
HETATM    9  N   UNL     1      24.564 -13.821 -17.031  1.00  0.00    -0.276 N 
HETATM   10  C   UNL     1      24.893 -15.132 -16.823  1.00  0.00     0.262 A 
HETATM   11  O   UNL     1      24.799 -16.075 -17.586  1.00  0.00    -0.267 OA
ENDROOT
BRANCH   9  12
HETATM   12  C   UNL     1      24.062 -13.314 -18.290  1.00  0.00     0.175 C 
BRANCH  12  13
HETATM   13  C   UNL     1      25.173 -13.075 -19.275  1.00  0.00    -0.024 A 
HETATM   14  C   UNL     1      26.053 -11.998 -19.134  1.00  0.00     0.011 A 
HETATM   15  C   UNL     1      27.101 -11.840 -20.035  1.00  0.00     0.018 A 
HETATM   16  C   UNL     1      27.239 -12.770 -21.051  1.00  0.00     0.087 A 
HETATM   17  N   UNL     1      26.408 -13.820 -21.224  1.00  0.00    -0.375 N 
HETATM   18  C   UNL     1      25.398 -13.951 -20.334  1.00  0.00     0.096 A 
HETATM   19  HN  UNL     1      26.536 -14.482 -21.989  1.00  0.00     0.164 HD
ENDBRANCH  12  13
ENDBRANCH   9  12
TORSDOF 2
ENDMDL
MODEL 3
REMARK VINA RESULT:      -5.8     10.788     14.858
REMARK  2 active torsions:
REMARK  status: ('A' for Active; 'I' for Inactive)
REMARK    1  A    between atoms: N_9  and  C_10 
REMARK    2  A    between atoms: C_10  and  C_11 
ROOT
HETATM    1  C   UNL     1      25.100   4.099 -26.774  1.00  0.00     0.001 A 
HETATM    2  C   UNL     1      23.884   4.732 -26.440  1.00  0.00     0.001 A 
HETATM    3  C   UNL     1      23.276   4.508 -25.202  1.00  0.00     0.018 A 
HETATM    4  C   UNL     1      23.918   3.648 -24.332  1.00  0.00     0.048 A 
HETATM    5  C   UNL     1      25.114   3.030 -24.653  1.00  0.00     0.048 A 
HETATM    6  C   UNL     1      25.732   3.234 -25.873  1.00  0.00     0.018 A 
HETATM    7  C   UNL     1      25.506   2.207 -23.508  1.00  0.00     0.262 A 
HETATM    8  O   UNL     1      26.513   1.528 -23.462  1.00  0.00    -0.267 OA
HETATM    9  N   UNL     1      24.530   2.369 -22.564  1.00  0.00    -0.276 N 
HETATM   10  C   UNL     1      23.541   3.211 -22.991  1.00  0.00     0.262 A 
HETATM   11  O   UNL     1      22.525   3.551 -22.416  1.00  0.00    -0.267 OA
ENDROOT
BRANCH   9  12
HETATM   12  C   UNL     1      24.542   1.748 -21.258  1.00  0.00     0.175 C 
BRANCH  12  13
HETATM   13  C   UNL     1      23.930   0.374 -21.290  1.00  0.00    -0.024 A 
HETATM   14  C   UNL     1      24.072  -0.512 -20.218  1.00  0.00     0.011 A 
HETATM   15  C   UNL     1      23.446  -1.754 -20.263  1.00  0.00     0.018 A 
HETATM   16  C   UNL     1      22.694  -2.071 -21.381  1.00  0.00     0.087 A 
HETATM   17  N   UNL     1      22.538  -1.246 -22.437  1.00  0.00    -0.375 N 
HETATM   18  C   UNL     1      23.155  -0.043 -22.369  1.00  0.00     0.096 A 
HETATM   19  HN  UNL     1      21.982  -1.515 -23.248  1.00  0.00     0.164 HD
ENDBRANCH  12  13
ENDBRANCH   9  12
TORSDOF 2
ENDMDL
MODEL 4
REMARK VINA RESULT:      -5.8     10.786     14.678
REMARK  2 active torsions:
REMARK  status: ('A' for Active; 'I' for Inactive)
REMARK    1  A    between atoms: N_9  and  C_10 
REMARK    2  A    between atoms: C_10  and  C_11 
ROOT
HETATM    1  C   UNL     1      23.895   4.561 -26.420  1.00  0.00     0.001 A 
HETATM    2  C   UNL     1      25.144   3.969 -26.703  1.00  0.00     0.001 A 
HETATM    3  C   UNL     1      25.780   3.152 -25.764  1.00  0.00     0.018 A 
HETATM    4  C   UNL     1      25.131   2.955 -24.561  1.00  0.00     0.048 A 
HETATM    5  C   UNL     1      23.904   3.528 -24.281  1.00  0.00     0.048 A 
HETATM    6  C   UNL     1      23.258   4.342 -25.192  1.00  0.00     0.018 A 
HETATM    7  C   UNL     1      23.514   3.102 -22.936  1.00  0.00     0.262 A 
HETATM    8  O   UNL     1      22.484   3.431 -22.381  1.00  0.00    -0.267 OA
HETATM    9  N   UNL     1      24.524   2.301 -22.477  1.00  0.00    -0.276 N 
HETATM   10  C   UNL     1      25.531   2.175 -23.393  1.00  0.00     0.262 A 
HETATM   11  O   UNL     1      26.576   1.560 -23.300  1.00  0.00    -0.267 OA
ENDROOT
BRANCH   9  12
HETATM   12  C   UNL     1      24.527   1.642 -21.190  1.00  0.00     0.175 C 
BRANCH  12  13
HETATM   13  C   UNL     1      23.865   0.293 -21.255  1.00  0.00    -0.024 A 
HETATM   14  C   UNL     1      23.901  -0.590 -20.172  1.00  0.00     0.011 A 
HETATM   15  C   UNL     1      23.231  -1.807 -20.251  1.00  0.00     0.018 A 
HETATM   16  C   UNL     1      22.541  -2.102 -21.414  1.00  0.00     0.087 A 
HETATM   17  N   UNL     1      22.487  -1.280 -22.482  1.00  0.00    -0.375 N 
HETATM   18  C   UNL     1      23.145  -0.102 -22.380  1.00  0.00     0.096 A 
HETATM   19  HN  UNL     1      21.974  -1.533 -23.326  1.00  0.00     0.164 HD
ENDBRANCH  12  13
ENDBRANCH   9  12
TORSDOF 2
ENDMDL
MODEL 5
REMARK VINA RESULT:      -5.8     13.267     15.331
REMARK  2 active torsions:
REMARK  status: ('A' for Active; 'I' for Inactive)
REMARK    1  A    between atoms: N_9  and  C_10 
REMARK    2  A    between atoms: C_10  and  C_11 
ROOT
HETATM    1  C   UNL     1      14.028  -5.297 -25.605  1.00  0.00     0.001 A 
HETATM    2  C   UNL     1      14.550  -6.303 -24.765  1.00  0.00     0.001 A 
HETATM    3  C   UNL     1      14.111  -6.433 -23.444  1.00  0.00     0.018 A 
HETATM    4  C   UNL     1      13.151  -5.540 -23.009  1.00  0.00     0.048 A 
HETATM    5  C   UNL     1      12.632  -4.555 -23.832  1.00  0.00     0.048 A 
HETATM    6  C   UNL     1      13.054  -4.405 -25.139  1.00  0.00     0.018 A 
HETATM    7  C   UNL     1      11.644  -3.807 -23.054  1.00  0.00     0.262 A 
HETATM    8  O   UNL     1      11.000  -2.868 -23.480  1.00  0.00    -0.267 OA
HETATM    9  N   UNL     1      11.622  -4.374 -21.810  1.00  0.00    -0.276 N 
HETATM   10  C   UNL     1      12.506  -5.412 -21.706  1.00  0.00     0.262 A 
HETATM   11  O   UNL     1      12.753  -6.113 -20.743  1.00  0.00    -0.267 OA
ENDROOT
BRANCH   9  12
HETATM   12  C   UNL     1      10.755  -3.952 -20.731  1.00  0.00     0.175 C 
BRANCH  12  13
HETATM   13  C   UNL     1      11.379  -2.853 -19.915  1.00  0.00    -0.024 A 
HETATM   14  C   UNL     1      12.174  -3.135 -18.801  1.00  0.00     0.011 A 
HETATM   15  C   UNL     1      12.779  -2.094 -18.103  1.00  0.00     0.018 A 
HETATM   16  C   UNL     1      12.570  -0.799 -18.545  1.00  0.00     0.087 A 
HETATM   17  N   UNL     1      11.806  -0.486 -19.613  1.00  0.00    -0.375 N 
HETATM   18  C   UNL     1      11.231  -1.516 -20.275  1.00  0.00     0.096 A 
HETATM   19  HN  UNL     1      11.669   0.481 -19.907  1.00  0.00     0.164 HD
ENDBRANCH  12  13
ENDBRANCH   9  12
TORSDOF 2
ENDMDL
MODEL 6
REMARK VINA RESULT:      -5.8     13.293     15.339
REMARK  2 active torsions:
REMARK  status: ('A' for Active; 'I' for Inactive)
REMARK    1  A    between atoms: N_9  and  C_10 
REMARK    2  A    between atoms: C_10  and  C_11 
ROOT
HETATM    1  C   UNL     1      14.520  -6.318 -24.625  1.00  0.00     0.001 A 
HETATM    2  C   UNL     1      14.033  -5.301 -25.474  1.00  0.00     0.001 A 
HETATM    3  C   UNL     1      13.055  -4.406 -25.031  1.00  0.00     0.018 A 
HETATM    4  C   UNL     1      12.597  -4.563 -23.738  1.00  0.00     0.048 A 
HETATM    5  C   UNL     1      13.075  -5.556 -22.901  1.00  0.00     0.048 A 
HETATM    6  C   UNL     1      14.039  -6.455 -23.317  1.00  0.00     0.018 A 
HETATM    7  C   UNL     1      12.382  -5.423 -21.619  1.00  0.00     0.262 A 
HETATM    8  O   UNL     1      12.568  -6.144 -20.658  1.00  0.00    -0.267 OA
HETATM    9  N   UNL     1      11.525  -4.366 -21.751  1.00  0.00    -0.276 N 
HETATM   10  C   UNL     1      11.591  -3.807 -22.997  1.00  0.00     0.262 A 
HETATM   11  O   UNL     1      10.956  -2.876 -23.453  1.00  0.00    -0.267 OA
ENDROOT
BRANCH   9  12
HETATM   12  C   UNL     1      10.662  -3.872 -20.700  1.00  0.00     0.175 C 
BRANCH  12  13
HETATM   13  C   UNL     1      11.336  -2.801 -19.886  1.00  0.00    -0.024 A 
HETATM   14  C   UNL     1      12.148  -3.119 -18.793  1.00  0.00     0.011 A 
HETATM   15  C   UNL     1      12.798  -2.104 -18.098  1.00  0.00     0.018 A 
HETATM   16  C   UNL     1      12.617  -0.799 -18.521  1.00  0.00     0.087 A 
HETATM   17  N   UNL     1      11.838  -0.451 -19.567  1.00  0.00    -0.375 N 
HETATM   18  C   UNL     1      11.219  -1.456 -20.227  1.00  0.00     0.096 A 
HETATM   19  HN  UNL     1      11.722   0.523 -19.847  1.00  0.00     0.164 HD
ENDBRANCH  12  13
ENDBRANCH   9  12
TORSDOF 2
ENDMDL
MODEL 7
REMARK VINA RESULT:      -5.7     11.849     13.293
REMARK  2 active torsions:
REMARK  status: ('A' for Active; 'I' for Inactive)
REMARK    1  A    between atoms: N_9  and  C_10 
REMARK    2  A    between atoms: C_10  and  C_11 
ROOT
HETATM    1  C   UNL     1      16.693  -7.288 -28.433  1.00  0.00     0.001 A 
HETATM    2  C   UNL     1      16.164  -6.064 -28.895  1.00  0.00     0.001 A 
HETATM    3  C   UNL     1      15.254  -5.339 -28.120  1.00  0.00     0.018 A 
HETATM    4  C   UNL     1      14.905  -5.873 -26.895  1.00  0.00     0.048 A 
HETATM    5  C   UNL     1      15.426  -7.070 -26.436  1.00  0.00     0.048 A 
HETATM    6  C   UNL     1      16.324  -7.806 -27.186  1.00  0.00     0.018 A 
HETATM    7  C   UNL     1      14.850  -7.323 -25.115  1.00  0.00     0.262 A 
HETATM    8  O   UNL     1      15.099  -8.297 -24.431  1.00  0.00    -0.267 OA
HETATM    9  N   UNL     1      14.015  -6.273 -24.850  1.00  0.00    -0.276 N 
HETATM   10  C   UNL     1      13.989  -5.370 -25.876  1.00  0.00     0.262 A 
HETATM   11  O   UNL     1      13.343  -4.344 -25.976  1.00  0.00    -0.267 OA
ENDROOT
BRANCH   9  12
HETATM   12  C   UNL     1      13.261  -6.113 -23.625  1.00  0.00     0.175 C 
BRANCH  12  13
HETATM   13  C   UNL     1      14.066  -5.412 -22.566  1.00  0.00    -0.024 A 
HETATM   14  C   UNL     1      14.061  -4.019 -22.450  1.00  0.00     0.011 A 
HETATM   15  C   UNL     1      14.776  -3.408 -21.424  1.00  0.00     0.018 A 
HETATM   16  C   UNL     1      15.473  -4.214 -20.541  1.00  0.00     0.087 A 
HETATM   17  N   UNL     1      15.507  -5.561 -20.622  1.00  0.00    -0.375 N 
HETATM   18  C   UNL     1      14.803  -6.130 -21.627  1.00  0.00     0.096 A 
HETATM   19  HN  UNL     1      16.037  -6.123 -19.956  1.00  0.00     0.164 HD
ENDBRANCH  12  13
ENDBRANCH   9  12
TORSDOF 2
ENDMDL
MODEL 8
REMARK VINA RESULT:      -5.6     13.552     15.497
REMARK  2 active torsions:
REMARK  status: ('A' for Active; 'I' for Inactive)
REMARK    1  A    between atoms: N_9  and  C_10 
REMARK    2  A    between atoms: C_10  and  C_11 
ROOT
HETATM    1  C   UNL     1      10.089  -4.323 -20.724  1.00  0.00     0.001 A 
HETATM    2  C   UNL     1      10.302  -2.932 -20.625  1.00  0.00     0.001 A 
HETATM    3  C   UNL     1      11.258  -2.414 -19.747  1.00  0.00     0.018 A 
HETATM    4  C   UNL     1      11.976  -3.321 -18.992  1.00  0.00     0.048 A 
HETATM    5  C   UNL     1      11.774  -4.686 -19.089  1.00  0.00     0.048 A 
HETATM    6  C   UNL     1      10.832  -5.221 -19.948  1.00  0.00     0.018 A 
HETATM    7  C   UNL     1      12.702  -5.336 -18.163  1.00  0.00     0.262 A 
HETATM    8  O   UNL     1      12.783  -6.538 -18.001  1.00  0.00    -0.267 OA
HETATM    9  N   UNL     1      13.407  -4.334 -17.557  1.00  0.00    -0.276 N 
HETATM   10  C   UNL     1      13.020  -3.099 -17.996  1.00  0.00     0.262 A 
HETATM   11  O   UNL     1      13.423  -2.004 -17.652  1.00  0.00    -0.267 OA
ENDROOT
BRANCH   9  12
HETATM   12  C   UNL     1      14.457  -4.543 -16.584  1.00  0.00     0.175 C 
BRANCH  12  13
HETATM   13  C   UNL     1      13.960  -4.336 -15.179  1.00  0.00    -0.024 A 
HETATM   14  C   UNL     1      14.318  -3.206 -14.438  1.00  0.00     0.011 A 
HETATM   15  C   UNL     1      13.795  -3.023 -13.162  1.00  0.00     0.018 A 
HETATM   16  C   UNL     1      12.925  -3.979 -12.666  1.00  0.00     0.087 A 
HETATM   17  N   UNL     1      12.560  -5.085 -13.347  1.00  0.00    -0.375 N 
HETATM   18  C   UNL     1      13.080  -5.238 -14.586  1.00  0.00     0.096 A 
HETATM   19  HN  UNL     1      11.921  -5.772 -12.947  1.00  0.00     0.164 HD
ENDBRANCH  12  13
ENDBRANCH   9  12
TORSDOF 2
ENDMDL
MODEL 9
REMARK VINA RESULT:      -5.6     13.546     15.482
REMARK  2 active torsions:
REMARK  status: ('A' for Active; 'I' for Inactive)
REMARK    1  A    between atoms: N_9  and  C_10 
REMARK    2  A    between atoms: C_10  and  C_11 
ROOT
HETATM    1  C   UNL     1      10.450  -2.577 -20.538  1.00  0.00     0.001 A 
HETATM    2  C   UNL     1      10.165  -3.954 -20.660  1.00  0.00     0.001 A 
HETATM    3  C   UNL     1      10.871  -4.901 -19.912  1.00  0.00     0.018 A 
HETATM    4  C   UNL     1      11.847  -4.427 -19.058  1.00  0.00     0.048 A 
HETATM    5  C   UNL     1      12.126  -3.078 -18.931  1.00  0.00     0.048 A 
HETATM    6  C   UNL     1      11.444  -2.124 -19.663  1.00  0.00     0.018 A 
HETATM    7  C   UNL     1      13.198  -2.939 -17.944  1.00  0.00     0.262 A 
HETATM    8  O   UNL     1      13.682  -1.880 -17.598  1.00  0.00    -0.267 OA
HETATM    9  N   UNL     1      13.509  -4.206 -17.532  1.00  0.00    -0.276 N 
HETATM   10  C   UNL     1      12.748  -5.150 -18.164  1.00  0.00     0.262 A 
HETATM   11  O   UNL     1      12.781  -6.360 -18.050  1.00  0.00    -0.267 OA
ENDROOT
BRANCH   9  12
HETATM   12  C   UNL     1      14.505  -4.522 -16.533  1.00  0.00     0.175 C 
BRANCH  12  13
HETATM   13  C   UNL     1      13.972  -4.335 -15.139  1.00  0.00    -0.024 A 
HETATM   14  C   UNL     1      14.300  -3.209 -14.378  1.00  0.00     0.011 A 
HETATM   15  C   UNL     1      13.744  -3.045 -13.113  1.00  0.00     0.018 A 
HETATM   16  C   UNL     1      12.872  -4.014 -12.648  1.00  0.00     0.087 A 
HETATM   17  N   UNL     1      12.534  -5.117 -13.350  1.00  0.00    -0.375 N 
HETATM   18  C   UNL     1      13.087  -5.252 -14.577  1.00  0.00     0.096 A 
HETATM   19  HN  UNL     1      11.892  -5.814 -12.973  1.00  0.00     0.164 HD
ENDBRANCH  12  13
ENDBRANCH   9  12
TORSDOF 2
ENDMDL
