MODEL 1
REMARK VINA RESULT:      -5.9      0.000      0.000
REMARK  8 active torsions:
REMARK  status: ('A' for Active; 'I' for Inactive)
REMARK    1  A    between atoms: C_2  and  C_4 
REMARK    2  A    between atoms: C_4  and  O_5 
REMARK    3  A    between atoms: O_5  and  C_6 
REMARK    4  A    between atoms: C_6  and  C_8 
REMARK    5  A    between atoms: C_13  and  N_14 
REMARK    6  A    between atoms: N_14  and  C_15 
REMARK    7  A    between atoms: C_18  and  N_24 
REMARK    8  A    between atoms: C_20  and  N_21 
ROOT
HETATM    1  C   UNL     1      15.049 -12.283 -29.362  1.00  0.00     0.011 C 
HETATM    2  C   UNL     1      16.111 -11.793 -30.343  1.00  0.00     0.002 C 
HETATM    3  C   UNL     1      16.672 -12.959 -31.157  1.00  0.00     0.011 C 
ENDROOT
BRANCH   2   4
HETATM    4  C   UNL     1      15.554 -10.727 -31.297  1.00  0.00     0.183 C 
BRANCH   4   5
HETATM    5  O   UNL     1      15.764  -9.370 -30.873  1.00  0.00    -0.317 OA
BRANCH   5   6
HETATM    6  C   UNL     1      14.940  -8.448 -31.430  1.00  0.00     0.295 C 
HETATM    7  O   UNL     1      13.729  -8.390 -31.271  1.00  0.00    -0.259 OA
BRANCH   6   8
HETATM    8  C   UNL     1      15.718  -7.363 -32.095  1.00  0.00     0.066 C 
HETATM    9  C   UNL     1      15.507  -7.219 -33.483  1.00  0.00     0.020 C 
HETATM   10  C   UNL     1      16.030  -6.137 -34.189  1.00  0.00     0.001 C 
HETATM   11  C   UNL     1      16.724  -5.156 -33.506  1.00  0.00     0.002 C 
HETATM   12  C   UNL     1      16.971  -5.304 -32.144  1.00  0.00     0.030 C 
HETATM   13  C   UNL     1      16.540  -6.440 -31.423  1.00  0.00     0.049 C 
BRANCH  13  14
HETATM   14  N   UNL     1      17.075  -6.676 -30.129  1.00  0.00    -0.353 N 
HETATM   15  HN  UNL     1      17.982  -7.154 -30.107  1.00  0.00     0.166 HD
BRANCH  14  16
HETATM   16  C   UNL     1      16.462  -6.385 -28.888  1.00  0.00     0.066 C 
HETATM   17  C   UNL     1      15.867  -5.116 -28.723  1.00  0.00     0.034 C 
HETATM   18  C   UNL     1      14.929  -4.862 -27.726  1.00  0.00     0.038 C 
HETATM   19  C   UNL     1      14.579  -5.887 -26.849  1.00  0.00     0.105 C 
HETATM   20  C   UNL     1      15.256  -7.112 -26.883  1.00  0.00     0.074 C 
HETATM   21  C   UNL     1      16.224  -7.343 -27.884  1.00  0.00     0.131 C 
BRANCH  19  22
HETATM   22  N   UNL     1      13.465  -5.679 -25.917  1.00  0.00    -0.116 N 
HETATM   23  O   UNL     1      12.997  -6.676 -25.348  1.00  0.00    -0.532 OA
HETATM   24  O   UNL     1      13.080  -4.517 -25.734  1.00  0.00    -0.532 OA
ENDBRANCH  19  22
BRANCH  21  25
HETATM   25  N   UNL     1      16.981  -8.604 -27.844  1.00  0.00    -0.113 N 
HETATM   26  O   UNL     1      18.172  -8.584 -28.188  1.00  0.00    -0.532 OA
HETATM   27  O   UNL     1      16.397  -9.609 -27.411  1.00  0.00    -0.532 OA
ENDBRANCH  21  25
ENDBRANCH  14  16
ENDBRANCH  13  14
ENDBRANCH   6   8
ENDBRANCH   5   6
ENDBRANCH   4   5
ENDBRANCH   2   4
TORSDOF 8
ENDMDL
MODEL 2
REMARK VINA RESULT:      -5.8      1.539      2.239
REMARK  8 active torsions:
REMARK  status: ('A' for Active; 'I' for Inactive)
REMARK    1  A    between atoms: C_2  and  C_4 
REMARK    2  A    between atoms: C_4  and  O_5 
REMARK    3  A    between atoms: O_5  and  C_6 
REMARK    4  A    between atoms: C_6  and  C_8 
REMARK    5  A    between atoms: C_13  and  N_14 
REMARK    6  A    between atoms: N_14  and  C_15 
REMARK    7  A    between atoms: C_18  and  N_24 
REMARK    8  A    between atoms: C_20  and  N_21 
ROOT
HETATM    1  C   UNL     1      12.056  -6.713 -29.519  1.00  0.00     0.011 C 
HETATM    2  C   UNL     1      12.914  -7.974 -29.470  1.00  0.00     0.002 C 
HETATM    3  C   UNL     1      12.513  -8.853 -28.285  1.00  0.00     0.011 C 
ENDROOT
BRANCH   2   4
HETATM    4  C   UNL     1      12.802  -8.787 -30.767  1.00  0.00     0.183 C 
BRANCH   4   5
HETATM    5  O   UNL     1      13.719  -8.398 -31.803  1.00  0.00    -0.317 OA
BRANCH   5   6
HETATM    6  C   UNL     1      15.034  -8.460 -31.477  1.00  0.00     0.295 C 
HETATM    7  O   UNL     1      15.577  -9.387 -30.893  1.00  0.00    -0.259 OA
BRANCH   6   8
HETATM    8  C   UNL     1      15.799  -7.350 -32.113  1.00  0.00     0.066 C 
HETATM    9  C   UNL     1      15.615  -7.196 -33.504  1.00  0.00     0.020 C 
HETATM   10  C   UNL     1      16.127  -6.094 -34.187  1.00  0.00     0.001 C 
HETATM   11  C   UNL     1      16.783  -5.104 -33.479  1.00  0.00     0.002 C 
HETATM   12  C   UNL     1      17.004  -5.261 -32.114  1.00  0.00     0.030 C 
HETATM   13  C   UNL     1      16.585  -6.416 -31.414  1.00  0.00     0.049 C 
BRANCH  13  14
HETATM   14  N   UNL     1      17.098  -6.653 -30.111  1.00  0.00    -0.353 N 
HETATM   15  HN  UNL     1      17.997  -7.146 -30.074  1.00  0.00     0.166 HD
BRANCH  14  16
HETATM   16  C   UNL     1      16.473  -6.345 -28.880  1.00  0.00     0.066 C 
HETATM   17  C   UNL     1      15.844  -5.088 -28.752  1.00  0.00     0.034 C 
HETATM   18  C   UNL     1      14.895  -4.832 -27.765  1.00  0.00     0.038 C 
HETATM   19  C   UNL     1      14.569  -5.842 -26.862  1.00  0.00     0.105 C 
HETATM   20  C   UNL     1      15.278  -7.050 -26.861  1.00  0.00     0.074 C 
HETATM   21  C   UNL     1      16.256  -7.282 -27.853  1.00  0.00     0.131 C 
BRANCH  19  22
HETATM   22  N   UNL     1      13.446  -5.639 -25.939  1.00  0.00    -0.116 N 
HETATM   23  O   UNL     1      12.893  -6.646 -25.476  1.00  0.00    -0.532 OA
HETATM   24  O   UNL     1      13.140  -4.473 -25.659  1.00  0.00    -0.532 OA
ENDBRANCH  19  22
BRANCH  21  25
HETATM   25  N   UNL     1      17.045  -8.522 -27.776  1.00  0.00    -0.113 N 
HETATM   26  O   UNL     1      18.251  -8.466 -28.055  1.00  0.00    -0.532 OA
HETATM   27  O   UNL     1      16.467  -9.545 -27.379  1.00  0.00    -0.532 OA
ENDBRANCH  21  25
ENDBRANCH  14  16
ENDBRANCH  13  14
ENDBRANCH   6   8
ENDBRANCH   5   6
ENDBRANCH   4   5
ENDBRANCH   2   4
TORSDOF 8
ENDMDL
MODEL 3
REMARK VINA RESULT:      -5.8     11.073     14.127
REMARK  8 active torsions:
REMARK  status: ('A' for Active; 'I' for Inactive)
REMARK    1  A    between atoms: C_2  and  C_4 
REMARK    2  A    between atoms: C_4  and  O_5 
REMARK    3  A    between atoms: O_5  and  C_6 
REMARK    4  A    between atoms: C_6  and  C_8 
REMARK    5  A    between atoms: C_13  and  N_14 
REMARK    6  A    between atoms: N_14  and  C_15 
REMARK    7  A    between atoms: C_18  and  N_24 
REMARK    8  A    between atoms: C_20  and  N_21 
ROOT
HETATM    1  C   UNL     1      18.733  -6.597 -20.189  1.00  0.00     0.011 C 
HETATM    2  C   UNL     1      18.100  -5.641 -19.181  1.00  0.00     0.002 C 
HETATM    3  C   UNL     1      18.644  -4.225 -19.367  1.00  0.00     0.011 C 
ENDROOT
BRANCH   2   4
HETATM    4  C   UNL     1      16.570  -5.619 -19.303  1.00  0.00     0.183 C 
BRANCH   4   5
HETATM    5  O   UNL     1      15.870  -6.258 -18.223  1.00  0.00    -0.317 OA
BRANCH   5   6
HETATM    6  C   UNL     1      15.579  -7.570 -18.408  1.00  0.00     0.295 C 
HETATM    7  O   UNL     1      14.884  -8.024 -19.304  1.00  0.00    -0.259 OA
BRANCH   6   8
HETATM    8  C   UNL     1      16.395  -8.434 -17.505  1.00  0.00     0.066 C 
HETATM    9  C   UNL     1      16.877  -9.632 -18.074  1.00  0.00     0.020 C 
HETATM   10  C   UNL     1      17.795 -10.437 -17.402  1.00  0.00     0.001 C 
HETATM   11  C   UNL     1      18.283 -10.027 -16.175  1.00  0.00     0.002 C 
HETATM   12  C   UNL     1      17.789  -8.867 -15.587  1.00  0.00     0.030 C 
HETATM   13  C   UNL     1      16.784  -8.084 -16.200  1.00  0.00     0.049 C 
BRANCH  13  14
HETATM   14  N   UNL     1      16.114  -7.099 -15.427  1.00  0.00    -0.353 N 
HETATM   15  HN  UNL     1      15.142  -7.318 -15.181  1.00  0.00     0.166 HD
BRANCH  14  16
HETATM   16  C   UNL     1      16.620  -5.841 -15.027  1.00  0.00     0.066 C 
HETATM   17  C   UNL     1      17.924  -5.489 -15.437  1.00  0.00     0.034 C 
HETATM   18  C   UNL     1      18.370  -4.170 -15.436  1.00  0.00     0.038 C 
HETATM   19  C   UNL     1      17.509  -3.165 -15.000  1.00  0.00     0.105 C 
HETATM   20  C   UNL     1      16.264  -3.487 -14.445  1.00  0.00     0.074 C 
HETATM   21  C   UNL     1      15.839  -4.834 -14.429  1.00  0.00     0.131 C 
BRANCH  19  22
HETATM   22  N   UNL     1      17.907  -1.762 -15.167  1.00  0.00    -0.116 N 
HETATM   23  O   UNL     1      17.265  -0.904 -14.545  1.00  0.00    -0.532 OA
HETATM   24  O   UNL     1      18.878  -1.526 -15.898  1.00  0.00    -0.532 OA
ENDBRANCH  19  22
BRANCH  21  25
HETATM   25  N   UNL     1      14.567  -5.154 -13.762  1.00  0.00    -0.113 N 
HETATM   26  O   UNL     1      13.781  -5.919 -14.340  1.00  0.00    -0.532 OA
HETATM   27  O   UNL     1      14.379  -4.683 -12.631  1.00  0.00    -0.532 OA
ENDBRANCH  21  25
ENDBRANCH  14  16
ENDBRANCH  13  14
ENDBRANCH   6   8
ENDBRANCH   5   6
ENDBRANCH   4   5
ENDBRANCH   2   4
TORSDOF 8
ENDMDL
MODEL 4
REMARK VINA RESULT:      -5.7      8.375     12.834
REMARK  8 active torsions:
REMARK  status: ('A' for Active; 'I' for Inactive)
REMARK    1  A    between atoms: C_2  and  C_4 
REMARK    2  A    between atoms: C_4  and  O_5 
REMARK    3  A    between atoms: O_5  and  C_6 
REMARK    4  A    between atoms: C_6  and  C_8 
REMARK    5  A    between atoms: C_13  and  N_14 
REMARK    6  A    between atoms: N_14  and  C_15 
REMARK    7  A    between atoms: C_18  and  N_24 
REMARK    8  A    between atoms: C_20  and  N_21 
ROOT
HETATM    1  C   UNL     1      15.472  -4.920 -14.106  1.00  0.00     0.011 C 
HETATM    2  C   UNL     1      14.412  -5.797 -14.766  1.00  0.00     0.002 C 
HETATM    3  C   UNL     1      13.012  -5.244 -14.499  1.00  0.00     0.011 C 
ENDROOT
BRANCH   2   4
HETATM    4  C   UNL     1      14.633  -5.911 -16.281  1.00  0.00     0.183 C 
BRANCH   4   5
HETATM    5  O   UNL     1      13.785  -5.069 -17.079  1.00  0.00    -0.317 OA
BRANCH   5   6
HETATM    6  C   UNL     1      14.337  -3.899 -17.486  1.00  0.00     0.295 C 
HETATM    7  O   UNL     1      15.454  -3.769 -17.964  1.00  0.00    -0.259 OA
BRANCH   6   8
HETATM    8  C   UNL     1      13.328  -2.800 -17.487  1.00  0.00     0.066 C 
HETATM    9  C   UNL     1      13.411  -1.890 -16.411  1.00  0.00     0.020 C 
HETATM   10  C   UNL     1      12.650  -0.722 -16.388  1.00  0.00     0.001 C 
HETATM   11  C   UNL     1      11.837  -0.423 -17.465  1.00  0.00     0.002 C 
HETATM   12  C   UNL     1      11.717  -1.329 -18.514  1.00  0.00     0.030 C 
HETATM   13  C   UNL     1      12.399  -2.567 -18.517  1.00  0.00     0.049 C 
BRANCH  13  14
HETATM   14  N   UNL     1      12.008  -3.564 -19.450  1.00  0.00    -0.353 N 
HETATM   15  HN  UNL     1      11.507  -4.367 -19.053  1.00  0.00     0.166 HD
BRANCH  14  16
HETATM   16  C   UNL     1      12.294  -3.594 -20.835  1.00  0.00     0.066 C 
HETATM   17  C   UNL     1      13.634  -3.417 -21.239  1.00  0.00     0.034 C 
HETATM   18  C   UNL     1      14.084  -3.800 -22.501  1.00  0.00     0.038 C 
HETATM   19  C   UNL     1      13.179  -4.359 -23.400  1.00  0.00     0.105 C 
HETATM   20  C   UNL     1      11.813  -4.413 -23.094  1.00  0.00     0.074 C 
HETATM   21  C   UNL     1      11.371  -3.994 -21.820  1.00  0.00     0.131 C 
BRANCH  19  22
HETATM   22  N   UNL     1      13.681  -4.928 -24.657  1.00  0.00    -0.116 N 
HETATM   23  O   UNL     1      14.406  -5.930 -24.585  1.00  0.00    -0.532 OA
HETATM   24  O   UNL     1      13.325  -4.388 -25.712  1.00  0.00    -0.532 OA
ENDBRANCH  19  22
BRANCH  21  25
HETATM   25  N   UNL     1       9.924  -3.980 -21.555  1.00  0.00    -0.113 N 
HETATM   26  O   UNL     1       9.436  -2.971 -21.027  1.00  0.00    -0.532 OA
HETATM   27  O   UNL     1       9.263  -4.960 -21.930  1.00  0.00    -0.532 OA
ENDBRANCH  21  25
ENDBRANCH  14  16
ENDBRANCH  13  14
ENDBRANCH   6   8
ENDBRANCH   5   6
ENDBRANCH   4   5
ENDBRANCH   2   4
TORSDOF 8
ENDMDL
MODEL 5
REMARK VINA RESULT:      -5.7      9.262     12.220
REMARK  8 active torsions:
REMARK  status: ('A' for Active; 'I' for Inactive)
REMARK    1  A    between atoms: C_2  and  C_4 
REMARK    2  A    between atoms: C_4  and  O_5 
REMARK    3  A    between atoms: O_5  and  C_6 
REMARK    4  A    between atoms: C_6  and  C_8 
REMARK    5  A    between atoms: C_13  and  N_14 
REMARK    6  A    between atoms: N_14  and  C_15 
REMARK    7  A    between atoms: C_18  and  N_24 
REMARK    8  A    between atoms: C_20  and  N_21 
ROOT
HETATM    1  C   UNL     1       7.132  -5.904 -20.516  1.00  0.00     0.011 C 
HETATM    2  C   UNL     1       7.964  -4.921 -21.336  1.00  0.00     0.002 C 
HETATM    3  C   UNL     1       7.399  -3.506 -21.215  1.00  0.00     0.011 C 
ENDROOT
BRANCH   2   4
HETATM    4  C   UNL     1       9.435  -4.921 -20.899  1.00  0.00     0.183 C 
BRANCH   4   5
HETATM    5  O   UNL     1      10.083  -3.640 -20.968  1.00  0.00    -0.317 OA
BRANCH   5   6
HETATM    6  C   UNL     1      10.795  -3.404 -22.098  1.00  0.00     0.295 C 
HETATM    7  O   UNL     1      10.351  -2.921 -23.129  1.00  0.00    -0.259 OA
BRANCH   6   8
HETATM    8  C   UNL     1      12.255  -3.600 -21.865  1.00  0.00     0.066 C 
HETATM    9  C   UNL     1      12.979  -4.157 -22.942  1.00  0.00     0.020 C 
HETATM   10  C   UNL     1      14.371  -4.226 -22.923  1.00  0.00     0.001 C 
HETATM   11  C   UNL     1      15.060  -3.690 -21.852  1.00  0.00     0.002 C 
HETATM   12  C   UNL     1      14.359  -3.172 -20.767  1.00  0.00     0.030 C 
HETATM   13  C   UNL     1      12.946  -3.180 -20.714  1.00  0.00     0.049 C 
BRANCH  13  14
HETATM   14  N   UNL     1      12.304  -2.923 -19.474  1.00  0.00    -0.353 N 
HETATM   15  HN  UNL     1      11.668  -2.117 -19.466  1.00  0.00     0.166 HD
BRANCH  14  16
HETATM   16  C   UNL     1      12.501  -3.609 -18.254  1.00  0.00     0.066 C 
HETATM   17  C   UNL     1      12.135  -4.971 -18.192  1.00  0.00     0.034 C 
HETATM   18  C   UNL     1      12.623  -5.825 -17.205  1.00  0.00     0.038 C 
HETATM   19  C   UNL     1      13.484  -5.316 -16.236  1.00  0.00     0.105 C 
HETATM   20  C   UNL     1      13.751  -3.942 -16.173  1.00  0.00     0.074 C 
HETATM   21  C   UNL     1      13.226  -3.087 -17.166  1.00  0.00     0.131 C 
BRANCH  19  22
HETATM   22  N   UNL     1      14.141  -6.243 -15.307  1.00  0.00    -0.116 N 
HETATM   23  O   UNL     1      14.623  -5.772 -14.267  1.00  0.00    -0.532 OA
HETATM   24  O   UNL     1      14.147  -7.445 -15.606  1.00  0.00    -0.532 OA
ENDBRANCH  19  22
BRANCH  21  25
HETATM   25  N   UNL     1      13.449  -1.639 -17.027  1.00  0.00    -0.113 N 
HETATM   26  O   UNL     1      12.932  -1.058 -16.062  1.00  0.00    -0.532 OA
HETATM   27  O   UNL     1      14.192  -1.092 -17.855  1.00  0.00    -0.532 OA
ENDBRANCH  21  25
ENDBRANCH  14  16
ENDBRANCH  13  14
ENDBRANCH   6   8
ENDBRANCH   5   6
ENDBRANCH   4   5
ENDBRANCH   2   4
TORSDOF 8
ENDMDL
MODEL 6
REMARK VINA RESULT:      -5.6     11.889     14.844
REMARK  8 active torsions:
REMARK  status: ('A' for Active; 'I' for Inactive)
REMARK    1  A    between atoms: C_2  and  C_4 
REMARK    2  A    between atoms: C_4  and  O_5 
REMARK    3  A    between atoms: O_5  and  C_6 
REMARK    4  A    between atoms: C_6  and  C_8 
REMARK    5  A    between atoms: C_13  and  N_14 
REMARK    6  A    between atoms: N_14  and  C_15 
REMARK    7  A    between atoms: C_18  and  N_24 
REMARK    8  A    between atoms: C_20  and  N_21 
ROOT
HETATM    1  C   UNL     1      14.089  -4.353 -17.577  1.00  0.00     0.011 C 
HETATM    2  C   UNL     1      12.998  -5.022 -16.746  1.00  0.00     0.002 C 
HETATM    3  C   UNL     1      12.214  -6.024 -17.594  1.00  0.00     0.011 C 
ENDROOT
BRANCH   2   4
HETATM    4  C   UNL     1      13.579  -5.739 -15.519  1.00  0.00     0.183 C 
BRANCH   4   5
HETATM    5  O   UNL     1      13.406  -5.039 -14.276  1.00  0.00    -0.317 OA
BRANCH   5   6
HETATM    6  C   UNL     1      14.548  -4.728 -13.614  1.00  0.00     0.295 C 
HETATM    7  O   UNL     1      15.115  -5.443 -12.800  1.00  0.00    -0.259 OA
BRANCH   6   8
HETATM    8  C   UNL     1      15.166  -3.485 -14.161  1.00  0.00     0.066 C 
HETATM    9  C   UNL     1      14.291  -2.392 -14.339  1.00  0.00     0.020 C 
HETATM   10  C   UNL     1      14.769  -1.126 -14.670  1.00  0.00     0.001 C 
HETATM   11  C   UNL     1      16.132  -0.923 -14.774  1.00  0.00     0.002 C 
HETATM   12  C   UNL     1      17.004  -2.000 -14.638  1.00  0.00     0.030 C 
HETATM   13  C   UNL     1      16.541  -3.314 -14.403  1.00  0.00     0.049 C 
BRANCH  13  14
HETATM   14  N   UNL     1      17.440  -4.400 -14.574  1.00  0.00    -0.353 N 
HETATM   15  HN  UNL     1      18.165  -4.490 -13.854  1.00  0.00     0.166 HD
BRANCH  14  16
HETATM   16  C   UNL     1      17.478  -5.312 -15.655  1.00  0.00     0.066 C 
HETATM   17  C   UNL     1      17.061  -6.639 -15.419  1.00  0.00     0.034 C 
HETATM   18  C   UNL     1      16.697  -7.496 -16.454  1.00  0.00     0.038 C 
HETATM   19  C   UNL     1      16.765  -7.037 -17.768  1.00  0.00     0.105 C 
HETATM   20  C   UNL     1      17.316  -5.782 -18.054  1.00  0.00     0.074 C 
HETATM   21  C   UNL     1      17.705  -4.936 -16.992  1.00  0.00     0.131 C 
BRANCH  19  22
HETATM   22  N   UNL     1      16.213  -7.869 -18.844  1.00  0.00    -0.116 N 
HETATM   23  O   UNL     1      17.005  -8.332 -19.676  1.00  0.00    -0.532 OA
HETATM   24  O   UNL     1      14.993  -8.080 -18.836  1.00  0.00    -0.532 OA
ENDBRANCH  19  22
BRANCH  21  25
HETATM   25  N   UNL     1      18.360  -3.661 -17.323  1.00  0.00    -0.113 N 
HETATM   26  O   UNL     1      17.759  -2.869 -18.063  1.00  0.00    -0.532 OA
HETATM   27  O   UNL     1      19.457  -3.426 -16.793  1.00  0.00    -0.532 OA
ENDBRANCH  21  25
ENDBRANCH  14  16
ENDBRANCH  13  14
ENDBRANCH   6   8
ENDBRANCH   5   6
ENDBRANCH   4   5
ENDBRANCH   2   4
TORSDOF 8
ENDMDL
MODEL 7
REMARK VINA RESULT:      -5.6      9.122     12.478
REMARK  8 active torsions:
REMARK  status: ('A' for Active; 'I' for Inactive)
REMARK    1  A    between atoms: C_2  and  C_4 
REMARK    2  A    between atoms: C_4  and  O_5 
REMARK    3  A    between atoms: O_5  and  C_6 
REMARK    4  A    between atoms: C_6  and  C_8 
REMARK    5  A    between atoms: C_13  and  N_14 
REMARK    6  A    between atoms: N_14  and  C_15 
REMARK    7  A    between atoms: C_18  and  N_24 
REMARK    8  A    between atoms: C_20  and  N_21 
ROOT
HETATM    1  C   UNL     1      17.300  -4.652 -17.728  1.00  0.00     0.011 C 
HETATM    2  C   UNL     1      16.745  -3.349 -18.298  1.00  0.00     0.002 C 
HETATM    3  C   UNL     1      17.285  -2.149 -17.520  1.00  0.00     0.011 C 
ENDROOT
BRANCH   2   4
HETATM    4  C   UNL     1      17.089  -3.188 -19.785  1.00  0.00     0.183 C 
BRANCH   4   5
HETATM    5  O   UNL     1      15.963  -2.920 -20.637  1.00  0.00    -0.317 OA
BRANCH   5   6
HETATM    6  C   UNL     1      15.308  -4.012 -21.105  1.00  0.00     0.295 C 
HETATM    7  O   UNL     1      15.650  -5.173 -20.932  1.00  0.00    -0.259 OA
BRANCH   6   8
HETATM    8  C   UNL     1      13.982  -3.640 -21.678  1.00  0.00     0.066 C 
HETATM    9  C   UNL     1      13.713  -4.134 -22.973  1.00  0.00     0.020 C 
HETATM   10  C   UNL     1      12.449  -4.013 -23.548  1.00  0.00     0.001 C 
HETATM   11  C   UNL     1      11.425  -3.444 -22.816  1.00  0.00     0.002 C 
HETATM   12  C   UNL     1      11.685  -2.919 -21.553  1.00  0.00     0.030 C 
HETATM   13  C   UNL     1      12.979  -2.938 -20.986  1.00  0.00     0.049 C 
BRANCH  13  14
HETATM   14  N   UNL     1      13.242  -2.130 -19.848  1.00  0.00    -0.353 N 
HETATM   15  HN  UNL     1      13.544  -1.170 -20.049  1.00  0.00     0.166 HD
BRANCH  14  16
HETATM   16  C   UNL     1      13.196  -2.528 -18.492  1.00  0.00     0.066 C 
HETATM   17  C   UNL     1      13.034  -3.901 -18.209  1.00  0.00     0.034 C 
HETATM   18  C   UNL     1      13.353  -4.444 -16.966  1.00  0.00     0.038 C 
HETATM   19  C   UNL     1      13.829  -3.602 -15.963  1.00  0.00     0.105 C 
HETATM   20  C   UNL     1      13.860  -2.215 -16.154  1.00  0.00     0.074 C 
HETATM   21  C   UNL     1      13.507  -1.680 -17.412  1.00  0.00     0.131 C 
BRANCH  19  22
HETATM   22  N   UNL     1      14.335  -4.192 -14.717  1.00  0.00    -0.116 N 
HETATM   23  O   UNL     1      15.437  -3.804 -14.303  1.00  0.00    -0.532 OA
HETATM   24  O   UNL     1      13.616  -5.020 -14.143  1.00  0.00    -0.532 OA
ENDBRANCH  19  22
BRANCH  21  25
HETATM   25  N   UNL     1      13.465  -0.217 -17.559  1.00  0.00    -0.113 N 
HETATM   26  O   UNL     1      12.475   0.288 -18.108  1.00  0.00    -0.532 OA
HETATM   27  O   UNL     1      14.401   0.435 -17.072  1.00  0.00    -0.532 OA
ENDBRANCH  21  25
ENDBRANCH  14  16
ENDBRANCH  13  14
ENDBRANCH   6   8
ENDBRANCH   5   6
ENDBRANCH   4   5
ENDBRANCH   2   4
TORSDOF 8
ENDMDL
MODEL 8
REMARK VINA RESULT:      -5.6     11.603     14.763
REMARK  8 active torsions:
REMARK  status: ('A' for Active; 'I' for Inactive)
REMARK    1  A    between atoms: C_2  and  C_4 
REMARK    2  A    between atoms: C_4  and  O_5 
REMARK    3  A    between atoms: O_5  and  C_6 
REMARK    4  A    between atoms: C_6  and  C_8 
REMARK    5  A    between atoms: C_13  and  N_14 
REMARK    6  A    between atoms: N_14  and  C_15 
REMARK    7  A    between atoms: C_18  and  N_24 
REMARK    8  A    between atoms: C_20  and  N_21 
ROOT
HETATM    1  C   UNL     1      14.724  -0.600 -15.333  1.00  0.00     0.011 C 
HETATM    2  C   UNL     1      13.746  -1.709 -15.708  1.00  0.00     0.002 C 
HETATM    3  C   UNL     1      14.241  -2.471 -16.938  1.00  0.00     0.011 C 
ENDROOT
BRANCH   2   4
HETATM    4  C   UNL     1      13.534  -2.695 -14.550  1.00  0.00     0.183 C 
BRANCH   4   5
HETATM    5  O   UNL     1      14.635  -2.790 -13.632  1.00  0.00    -0.317 OA
BRANCH   5   6
HETATM    6  C   UNL     1      15.161  -4.030 -13.474  1.00  0.00     0.295 C 
HETATM    7  O   UNL     1      14.673  -4.928 -12.804  1.00  0.00    -0.259 OA
BRANCH   6   8
HETATM    8  C   UNL     1      16.310  -4.249 -14.399  1.00  0.00     0.066 C 
HETATM    9  C   UNL     1      17.193  -3.158 -14.550  1.00  0.00     0.020 C 
HETATM   10  C   UNL     1      18.398  -3.289 -15.239  1.00  0.00     0.001 C 
HETATM   11  C   UNL     1      18.760  -4.525 -15.739  1.00  0.00     0.002 C 
HETATM   12  C   UNL     1      17.883  -5.600 -15.630  1.00  0.00     0.030 C 
HETATM   13  C   UNL     1      16.612  -5.472 -15.026  1.00  0.00     0.049 C 
BRANCH  13  14
HETATM   14  N   UNL     1      15.655  -6.505 -15.213  1.00  0.00    -0.353 N 
HETATM   15  HN  UNL     1      15.751  -7.312 -14.587  1.00  0.00     0.166 HD
BRANCH  14  16
HETATM   16  C   UNL     1      14.645  -6.562 -16.201  1.00  0.00     0.066 C 
HETATM   17  C   UNL     1      13.366  -6.063 -15.873  1.00  0.00     0.034 C 
HETATM   18  C   UNL     1      12.433  -5.720 -16.847  1.00  0.00     0.038 C 
HETATM   19  C   UNL     1      12.763  -5.890 -18.190  1.00  0.00     0.105 C 
HETATM   20  C   UNL     1      13.959  -6.521 -18.553  1.00  0.00     0.074 C 
HETATM   21  C   UNL     1      14.882  -6.888 -17.549  1.00  0.00     0.131 C 
BRANCH  19  22
HETATM   22  N   UNL     1      11.859  -5.363 -19.219  1.00  0.00    -0.116 N 
HETATM   23  O   UNL     1      11.522  -4.174 -19.135  1.00  0.00    -0.532 OA
HETATM   24  O   UNL     1      11.511  -6.133 -20.125  1.00  0.00    -0.532 OA
ENDBRANCH  19  22
BRANCH  21  25
HETATM   25  N   UNL     1      16.090  -7.626 -17.951  1.00  0.00    -0.113 N 
HETATM   26  O   UNL     1      16.797  -7.147 -18.850  1.00  0.00    -0.532 OA
HETATM   27  O   UNL     1      16.363  -8.662 -17.326  1.00  0.00    -0.532 OA
ENDBRANCH  21  25
ENDBRANCH  14  16
ENDBRANCH  13  14
ENDBRANCH   6   8
ENDBRANCH   5   6
ENDBRANCH   4   5
ENDBRANCH   2   4
TORSDOF 8
ENDMDL
MODEL 9
REMARK VINA RESULT:      -5.6      9.787     12.473
REMARK  8 active torsions:
REMARK  status: ('A' for Active; 'I' for Inactive)
REMARK    1  A    between atoms: C_2  and  C_4 
REMARK    2  A    between atoms: C_4  and  O_5 
REMARK    3  A    between atoms: O_5  and  C_6 
REMARK    4  A    between atoms: C_6  and  C_8 
REMARK    5  A    between atoms: C_13  and  N_14 
REMARK    6  A    between atoms: N_14  and  C_15 
REMARK    7  A    between atoms: C_18  and  N_24 
REMARK    8  A    between atoms: C_20  and  N_21 
ROOT
HETATM    1  C   UNL     1      16.006  -4.580 -20.221  1.00  0.00     0.011 C 
HETATM    2  C   UNL     1      15.441  -3.285 -20.797  1.00  0.00     0.002 C 
HETATM    3  C   UNL     1      14.350  -3.584 -21.826  1.00  0.00     0.011 C 
ENDROOT
BRANCH   2   4
HETATM    4  C   UNL     1      14.869  -2.377 -19.699  1.00  0.00     0.183 C 
BRANCH   4   5
HETATM    5  O   UNL     1      14.261  -3.074 -18.598  1.00  0.00    -0.317 OA
BRANCH   5   6
HETATM    6  C   UNL     1      13.045  -2.613 -18.214  1.00  0.00     0.295 C 
HETATM    7  O   UNL     1      12.848  -1.674 -17.456  1.00  0.00    -0.259 OA
BRANCH   6   8
HETATM    8  C   UNL     1      11.953  -3.253 -19.003  1.00  0.00     0.066 C 
HETATM    9  C   UNL     1      11.234  -2.396 -19.863  1.00  0.00     0.020 C 
HETATM   10  C   UNL     1      10.314  -2.895 -20.784  1.00  0.00     0.001 C 
HETATM   11  C   UNL     1      10.141  -4.262 -20.893  1.00  0.00     0.002 C 
HETATM   12  C   UNL     1      10.815  -5.117 -20.026  1.00  0.00     0.030 C 
HETATM   13  C   UNL     1      11.677  -4.632 -19.016  1.00  0.00     0.049 C 
BRANCH  13  14
HETATM   14  N   UNL     1      12.091  -5.516 -17.984  1.00  0.00    -0.353 N 
HETATM   15  HN  UNL     1      11.611  -5.400 -17.085  1.00  0.00     0.166 HD
BRANCH  14  16
HETATM   16  C   UNL     1      13.127  -6.477 -18.051  1.00  0.00     0.066 C 
HETATM   17  C   UNL     1      13.243  -7.248 -19.227  1.00  0.00     0.034 C 
HETATM   18  C   UNL     1      14.413  -7.927 -19.556  1.00  0.00     0.038 C 
HETATM   19  C   UNL     1      15.500  -7.859 -18.687  1.00  0.00     0.105 C 
HETATM   20  C   UNL     1      15.377  -7.232 -17.441  1.00  0.00     0.074 C 
HETATM   21  C   UNL     1      14.172  -6.572 -17.113  1.00  0.00     0.131 C 
BRANCH  19  22
HETATM   22  N   UNL     1      16.789  -8.419 -19.113  1.00  0.00    -0.116 N 
HETATM   23  O   UNL     1      17.303  -9.289 -18.396  1.00  0.00    -0.532 OA
HETATM   24  O   UNL     1      17.269  -8.007 -20.177  1.00  0.00    -0.532 OA
ENDBRANCH  19  22
BRANCH  21  25
HETATM   25  N   UNL     1      14.039  -5.998 -15.765  1.00  0.00    -0.113 N 
HETATM   26  O   UNL     1      13.983  -6.775 -14.801  1.00  0.00    -0.532 OA
HETATM   27  O   UNL     1      14.047  -4.761 -15.666  1.00  0.00    -0.532 OA
ENDBRANCH  21  25
ENDBRANCH  14  16
ENDBRANCH  13  14
ENDBRANCH   6   8
ENDBRANCH   5   6
ENDBRANCH   4   5
ENDBRANCH   2   4
TORSDOF 8
ENDMDL
