MODEL 1
REMARK VINA RESULT:      -4.5      0.000      0.000
REMARK  2 active torsions:
REMARK  status: ('A' for Active; 'I' for Inactive)
REMARK    1  A    between atoms: C_2  and  C_3 
REMARK    2  A    between atoms: C_6  and  O_9 
ROOT
HETATM    1  C   UNL     1      26.238 -15.943 -14.109  1.00  0.00     0.010 C 
HETATM    2  C   UNL     1      24.908 -16.113 -14.827  1.00  0.00     0.034 C 
ENDROOT
BRANCH   2   3
HETATM    3  C   UNL     1      24.695 -15.054 -15.877  1.00  0.00    -0.058 A 
HETATM    4  C   UNL     1      24.176 -15.394 -17.137  1.00  0.00     0.010 A 
HETATM    5  C   UNL     1      23.992 -14.415 -18.116  1.00  0.00     0.037 A 
HETATM    6  C   UNL     1      24.333 -13.096 -17.838  1.00  0.00     0.065 A 
HETATM    7  C   UNL     1      24.851 -12.741 -16.599  1.00  0.00     0.037 A 
HETATM    8  C   UNL     1      25.035 -13.719 -15.620  1.00  0.00     0.010 A 
BRANCH   6   9
HETATM    9  O   UNL     1      24.178 -12.110 -18.767  1.00  0.00    -0.361 OA
HETATM   10  H   UNL     1      24.849 -11.427 -18.606  1.00  0.00     0.217 HD
ENDBRANCH   6   9
ENDBRANCH   2   3
TORSDOF 2
ENDMDL
MODEL 2
REMARK VINA RESULT:      -4.5      0.109      1.614
REMARK  2 active torsions:
REMARK  status: ('A' for Active; 'I' for Inactive)
REMARK    1  A    between atoms: C_2  and  C_3 
REMARK    2  A    between atoms: C_6  and  O_9 
ROOT
HETATM    1  C   UNL     1      26.213 -16.087 -14.263  1.00  0.00     0.010 C 
HETATM    2  C   UNL     1      24.831 -16.100 -14.896  1.00  0.00     0.034 C 
ENDROOT
BRANCH   2   3
HETATM    3  C   UNL     1      24.683 -15.031 -15.949  1.00  0.00    -0.058 A 
HETATM    4  C   UNL     1      25.063 -13.707 -15.678  1.00  0.00     0.010 A 
HETATM    5  C   UNL     1      24.912 -12.713 -16.648  1.00  0.00     0.037 A 
HETATM    6  C   UNL     1      24.375 -13.042 -17.887  1.00  0.00     0.065 A 
HETATM    7  C   UNL     1      23.990 -14.345 -18.173  1.00  0.00     0.037 A 
HETATM    8  C   UNL     1      24.141 -15.339 -17.204  1.00  0.00     0.010 A 
BRANCH   6   9
HETATM    9  O   UNL     1      24.203 -12.101 -18.860  1.00  0.00    -0.361 OA
HETATM   10  H   UNL     1      23.434 -11.556 -18.627  1.00  0.00     0.217 HD
ENDBRANCH   6   9
ENDBRANCH   2   3
TORSDOF 2
ENDMDL
MODEL 3
REMARK VINA RESULT:      -4.3      1.743      3.236
REMARK  2 active torsions:
REMARK  status: ('A' for Active; 'I' for Inactive)
REMARK    1  A    between atoms: C_2  and  C_3 
REMARK    2  A    between atoms: C_6  and  O_9 
ROOT
HETATM    1  C   UNL     1      23.273 -15.691 -19.767  1.00  0.00     0.010 C 
HETATM    2  C   UNL     1      23.046 -15.680 -18.263  1.00  0.00     0.034 C 
ENDROOT
BRANCH   2   3
HETATM    3  C   UNL     1      23.900 -14.648 -17.572  1.00  0.00    -0.058 A 
HETATM    4  C   UNL     1      24.633 -14.983 -16.423  1.00  0.00     0.010 A 
HETATM    5  C   UNL     1      25.413 -14.024 -15.774  1.00  0.00     0.037 A 
HETATM    6  C   UNL     1      25.454 -12.725 -16.269  1.00  0.00     0.065 A 
HETATM    7  C   UNL     1      24.732 -12.373 -17.403  1.00  0.00     0.037 A 
HETATM    8  C   UNL     1      23.953 -13.333 -18.052  1.00  0.00     0.010 A 
BRANCH   6   9
HETATM    9  O   UNL     1      26.195 -11.755 -15.662  1.00  0.00    -0.361 OA
HETATM   10  H   UNL     1      26.629 -12.142 -14.884  1.00  0.00     0.217 HD
ENDBRANCH   6   9
ENDBRANCH   2   3
TORSDOF 2
ENDMDL
MODEL 4
REMARK VINA RESULT:      -4.3      2.395      3.870
REMARK  2 active torsions:
REMARK  status: ('A' for Active; 'I' for Inactive)
REMARK    1  A    between atoms: C_2  and  C_3 
REMARK    2  A    between atoms: C_6  and  O_9 
ROOT
HETATM    1  C   UNL     1      22.791 -15.667 -18.236  1.00  0.00     0.010 C 
HETATM    2  C   UNL     1      24.267 -15.307 -18.175  1.00  0.00     0.034 C 
ENDROOT
BRANCH   2   3
HETATM    3  C   UNL     1      24.709 -14.980 -16.771  1.00  0.00    -0.058 A 
HETATM    4  C   UNL     1      24.780 -13.647 -16.338  1.00  0.00     0.010 A 
HETATM    5  C   UNL     1      25.204 -13.343 -15.043  1.00  0.00     0.037 A 
HETATM    6  C   UNL     1      25.565 -14.373 -14.181  1.00  0.00     0.065 A 
HETATM    7  C   UNL     1      25.505 -15.699 -14.592  1.00  0.00     0.037 A 
HETATM    8  C   UNL     1      25.080 -16.003 -15.887  1.00  0.00     0.010 A 
BRANCH   6   9
HETATM    9  O   UNL     1      25.992 -14.121 -12.911  1.00  0.00    -0.361 OA
HETATM   10  H   UNL     1      25.313 -13.597 -12.457  1.00  0.00     0.217 HD
ENDBRANCH   6   9
ENDBRANCH   2   3
TORSDOF 2
ENDMDL
MODEL 5
REMARK VINA RESULT:      -4.3      2.423      3.738
REMARK  2 active torsions:
REMARK  status: ('A' for Active; 'I' for Inactive)
REMARK    1  A    between atoms: C_2  and  C_3 
REMARK    2  A    between atoms: C_6  and  O_9 
ROOT
HETATM    1  C   UNL     1      22.856 -15.596 -18.157  1.00  0.00     0.010 C 
HETATM    2  C   UNL     1      24.342 -15.281 -18.086  1.00  0.00     0.034 C 
ENDROOT
BRANCH   2   3
HETATM    3  C   UNL     1      24.791 -14.997 -16.675  1.00  0.00    -0.058 A 
HETATM    4  C   UNL     1      25.117 -16.050 -15.806  1.00  0.00     0.010 A 
HETATM    5  C   UNL     1      25.518 -15.788 -14.494  1.00  0.00     0.037 A 
HETATM    6  C   UNL     1      25.589 -14.473 -14.049  1.00  0.00     0.065 A 
HETATM    7  C   UNL     1      25.269 -13.418 -14.893  1.00  0.00     0.037 A 
HETATM    8  C   UNL     1      24.867 -13.679 -16.205  1.00  0.00     0.010 A 
BRANCH   6   9
HETATM    9  O   UNL     1      25.969 -14.173 -12.774  1.00  0.00    -0.361 OA
HETATM   10  H   UNL     1      26.764 -13.618 -12.813  1.00  0.00     0.217 HD
ENDBRANCH   6   9
ENDBRANCH   2   3
TORSDOF 2
ENDMDL
MODEL 6
REMARK VINA RESULT:      -4.3      6.988      8.818
REMARK  2 active torsions:
REMARK  status: ('A' for Active; 'I' for Inactive)
REMARK    1  A    between atoms: C_2  and  C_3 
REMARK    2  A    between atoms: C_6  and  O_9 
ROOT
HETATM    1  C   UNL     1      23.510  -4.765 -21.987  1.00  0.00     0.010 C 
HETATM    2  C   UNL     1      22.909  -6.162 -22.016  1.00  0.00     0.034 C 
ENDROOT
BRANCH   2   3
HETATM    3  C   UNL     1      23.896  -7.210 -21.570  1.00  0.00    -0.058 A 
HETATM    4  C   UNL     1      23.853  -8.505 -22.109  1.00  0.00     0.010 A 
HETATM    5  C   UNL     1      24.757  -9.480 -21.686  1.00  0.00     0.037 A 
HETATM    6  C   UNL     1      25.703  -9.163 -20.717  1.00  0.00     0.065 A 
HETATM    7  C   UNL     1      25.760  -7.888 -20.169  1.00  0.00     0.037 A 
HETATM    8  C   UNL     1      24.855  -6.912 -20.593  1.00  0.00     0.010 A 
BRANCH   6   9
HETATM    9  O   UNL     1      26.600 -10.087 -20.268  1.00  0.00    -0.361 OA
HETATM   10  H   UNL     1      27.385  -9.619 -19.941  1.00  0.00     0.217 HD
ENDBRANCH   6   9
ENDBRANCH   2   3
TORSDOF 2
ENDMDL
MODEL 7
REMARK VINA RESULT:      -4.2      7.973     10.024
REMARK  2 active torsions:
REMARK  status: ('A' for Active; 'I' for Inactive)
REMARK    1  A    between atoms: C_2  and  C_3 
REMARK    2  A    between atoms: C_6  and  O_9 
ROOT
HETATM    1  C   UNL     1      22.389  -3.685 -21.715  1.00  0.00     0.010 C 
HETATM    2  C   UNL     1      23.823  -4.180 -21.817  1.00  0.00     0.034 C 
ENDROOT
BRANCH   2   3
HETATM    3  C   UNL     1      23.906  -5.684 -21.753  1.00  0.00    -0.058 A 
HETATM    4  C   UNL     1      24.861  -6.311 -20.938  1.00  0.00     0.010 A 
HETATM    5  C   UNL     1      24.949  -7.704 -20.890  1.00  0.00     0.037 A 
HETATM    6  C   UNL     1      24.084  -8.471 -21.662  1.00  0.00     0.065 A 
HETATM    7  C   UNL     1      23.134  -7.869 -22.477  1.00  0.00     0.037 A 
HETATM    8  C   UNL     1      23.046  -6.476 -22.526  1.00  0.00     0.010 A 
BRANCH   6   9
HETATM    9  O   UNL     1      24.140  -9.834 -21.652  1.00  0.00    -0.361 OA
HETATM   10  H   UNL     1      25.072 -10.103 -21.642  1.00  0.00     0.217 HD
ENDBRANCH   6   9
ENDBRANCH   2   3
TORSDOF 2
ENDMDL
MODEL 8
REMARK VINA RESULT:      -4.2      1.802      2.341
REMARK  2 active torsions:
REMARK  status: ('A' for Active; 'I' for Inactive)
REMARK    1  A    between atoms: C_2  and  C_3 
REMARK    2  A    between atoms: C_6  and  O_9 
ROOT
HETATM    1  C   UNL     1      26.311 -16.020 -12.631  1.00  0.00     0.010 C 
HETATM    2  C   UNL     1      25.756 -14.805 -13.357  1.00  0.00     0.034 C 
ENDROOT
BRANCH   2   3
HETATM    3  C   UNL     1      25.604 -15.052 -14.836  1.00  0.00    -0.058 A 
HETATM    4  C   UNL     1      26.099 -16.230 -15.416  1.00  0.00     0.010 A 
HETATM    5  C   UNL     1      25.972 -16.452 -16.789  1.00  0.00     0.037 A 
HETATM    6  C   UNL     1      25.355 -15.493 -17.584  1.00  0.00     0.065 A 
HETATM    7  C   UNL     1      24.861 -14.319 -17.028  1.00  0.00     0.037 A 
HETATM    8  C   UNL     1      24.988 -14.097 -15.656  1.00  0.00     0.010 A 
BRANCH   6   9
HETATM    9  O   UNL     1      25.216 -15.666 -18.930  1.00  0.00    -0.361 OA
HETATM   10  H   UNL     1      25.112 -14.793 -19.342  1.00  0.00     0.217 HD
ENDBRANCH   6   9
ENDBRANCH   2   3
TORSDOF 2
ENDMDL
MODEL 9
REMARK VINA RESULT:      -4.2      2.516      3.407
REMARK  2 active torsions:
REMARK  status: ('A' for Active; 'I' for Inactive)
REMARK    1  A    between atoms: C_2  and  C_3 
REMARK    2  A    between atoms: C_6  and  O_9 
ROOT
HETATM    1  C   UNL     1      24.825 -12.529 -16.017  1.00  0.00     0.010 C 
HETATM    2  C   UNL     1      25.754 -13.283 -16.955  1.00  0.00     0.034 C 
ENDROOT
BRANCH   2   3
HETATM    3  C   UNL     1      24.992 -14.086 -17.978  1.00  0.00    -0.058 A 
HETATM    4  C   UNL     1      25.360 -14.048 -19.332  1.00  0.00     0.010 A 
HETATM    5  C   UNL     1      24.645 -14.780 -20.282  1.00  0.00     0.037 A 
HETATM    6  C   UNL     1      23.557 -15.546 -19.880  1.00  0.00     0.065 A 
HETATM    7  C   UNL     1      23.175 -15.594 -18.545  1.00  0.00     0.037 A 
HETATM    8  C   UNL     1      23.890 -14.862 -17.595  1.00  0.00     0.010 A 
BRANCH   6   9
HETATM    9  O   UNL     1      22.826 -16.270 -20.775  1.00  0.00    -0.361 OA
HETATM   10  H   UNL     1      21.884 -16.127 -20.590  1.00  0.00     0.217 HD
ENDBRANCH   6   9
ENDBRANCH   2   3
TORSDOF 2
ENDMDL
