MODEL 1
REMARK VINA RESULT:      -8.8      0.000      0.000
REMARK  9 active torsions:
REMARK  status: ('A' for Active; 'I' for Inactive)
REMARK    1  A    between atoms: N_19  and  C_20 
REMARK    2  A    between atoms: C_24  and  C_26 
REMARK    3  A    between atoms: C_26  and  O_28 
REMARK    4  A    between atoms: O_28  and  C_29 
REMARK    5  A    between atoms: C_29  and  C_30 
REMARK    6  A    between atoms: C_30  and  C_32 
REMARK    7  A    between atoms: C_35  and  O_38 
REMARK    8  A    between atoms: O_38  and  C_39 
REMARK    9  A    between atoms: C_39  and  C_41 
ROOT
HETATM    1  C   UNL     1      13.969  -5.026 -24.684  1.00  0.00     0.001 A 
HETATM    2  C   UNL     1      12.683  -4.515 -24.845  1.00  0.00     0.001 A 
HETATM    3  C   UNL     1      11.970  -4.019 -23.749  1.00  0.00     0.010 A 
HETATM    4  C   UNL     1      12.545  -4.036 -22.475  1.00  0.00    -0.025 A 
HETATM    5  C   UNL     1      13.847  -4.603 -22.308  1.00  0.00    -0.025 A 
HETATM    6  C   UNL     1      14.551  -5.072 -23.422  1.00  0.00     0.010 A 
HETATM    7  C   UNL     1      14.314  -4.634 -20.834  1.00  0.00     0.086 C 
HETATM    8  C   UNL     1      13.210  -5.341 -20.014  1.00  0.00    -0.025 A 
HETATM    9  C   UNL     1      13.367  -6.427 -19.153  1.00  0.00     0.010 A 
HETATM   10  C   UNL     1      12.250  -6.985 -18.532  1.00  0.00     0.001 A 
HETATM   11  C   UNL     1      10.974  -6.470 -18.765  1.00  0.00     0.001 A 
HETATM   12  C   UNL     1      10.798  -5.365 -19.597  1.00  0.00     0.010 A 
HETATM   13  C   UNL     1      11.906  -4.778 -20.208  1.00  0.00    -0.025 A 
HETATM   14  C   UNL     1      11.912  -3.556 -21.138  1.00  0.00     0.086 C 
HETATM   15  C   UNL     1      12.918  -2.518 -20.540  1.00  0.00     0.122 A 
HETATM   16  C   UNL     1      14.329  -3.142 -20.419  1.00  0.00     0.122 A 
HETATM   17  C   UNL     1      14.705  -2.940 -18.984  1.00  0.00     0.238 A 
HETATM   18  O   UNL     1      15.749  -3.387 -18.528  1.00  0.00    -0.272 OA
HETATM   19  N   UNL     1      13.730  -2.236 -18.323  1.00  0.00    -0.252 N 
HETATM   20  C   UNL     1      12.621  -2.023 -19.128  1.00  0.00     0.238 A 
HETATM   21  O   UNL     1      11.584  -1.449 -18.837  1.00  0.00    -0.272 OA
HETATM   22 BR   UNL     1      10.172  -2.737 -21.411  1.00  0.00    -0.074 Br
HETATM   23 BR   UNL     1      16.070  -5.471 -20.675  1.00  0.00    -0.074 Br
ENDROOT
BRANCH  19  24
HETATM   24  C   UNL     1      13.827  -1.928 -16.921  1.00  0.00     0.046 A 
HETATM   25  C   UNL     1      14.398  -0.713 -16.488  1.00  0.00     0.030 A 
HETATM   26  C   UNL     1      14.735  -0.478 -15.155  1.00  0.00     0.003 A 
HETATM   27  C   UNL     1      14.473  -1.451 -14.201  1.00  0.00     0.018 A 
HETATM   28  C   UNL     1      13.817  -2.627 -14.576  1.00  0.00     0.041 A 
HETATM   29  C   UNL     1      13.465  -2.845 -15.925  1.00  0.00     0.048 A 
BRANCH  28  30
HETATM   30  C   UNL     1      13.675  -3.694 -13.548  1.00  0.00     0.293 C 
HETATM   31  O   UNL     1      12.608  -4.019 -13.051  1.00  0.00    -0.259 OA
BRANCH  30  32
HETATM   32  O   UNL     1      14.890  -4.161 -13.171  1.00  0.00    -0.310 OA
BRANCH  32  33
HETATM   33  C   UNL     1      15.137  -5.523 -13.547  1.00  0.00     0.263 C 
BRANCH  33  34
HETATM   34  C   UNL     1      15.859  -5.531 -14.893  1.00  0.00     0.183 C 
HETATM   35  O   UNL     1      16.590  -4.603 -15.245  1.00  0.00    -0.290 OA
BRANCH  34  36
HETATM   36  C   UNL     1      15.683  -6.686 -15.822  1.00  0.00     0.012 A 
HETATM   37  C   UNL     1      14.656  -7.627 -15.703  1.00  0.00     0.018 A 
HETATM   38  C   UNL     1      14.586  -8.704 -16.600  1.00  0.00     0.038 A 
HETATM   39  C   UNL     1      15.536  -8.834 -17.618  1.00  0.00     0.079 A 
HETATM   40  C   UNL     1      16.562  -7.904 -17.745  1.00  0.00     0.038 A 
HETATM   41  C   UNL     1      16.626  -6.829 -16.856  1.00  0.00     0.018 A 
BRANCH  39  42
HETATM   42  O   UNL     1      15.440  -9.995 -18.420  1.00  0.00    -0.273 OA
BRANCH  42  43
HETATM   43  C   UNL     1      14.284 -10.335 -19.134  1.00  0.00     0.322 C 
HETATM   44  O   UNL     1      13.405 -11.096 -18.745  1.00  0.00    -0.257 OA
BRANCH  43  45
HETATM   45  C   UNL     1      14.276  -9.665 -20.416  1.00  0.00     0.150 A 
HETATM   46  C   UNL     1      15.324  -9.220 -21.205  1.00  0.00     0.045 A 
HETATM   47  C   UNL     1      14.751  -8.634 -22.358  1.00  0.00     0.027 A 
HETATM   48  C   UNL     1      13.391  -8.757 -22.214  1.00  0.00     0.143 A 
HETATM   49  O   UNL     1      13.090  -9.378 -21.042  1.00  0.00    -0.317 OA
ENDBRANCH  43  45
ENDBRANCH  42  43
ENDBRANCH  39  42
ENDBRANCH  34  36
ENDBRANCH  33  34
ENDBRANCH  32  33
ENDBRANCH  30  32
ENDBRANCH  28  30
ENDBRANCH  19  24
TORSDOF 9
ENDMDL
MODEL 2
REMARK VINA RESULT:      -8.8      1.797      6.675
REMARK  9 active torsions:
REMARK  status: ('A' for Active; 'I' for Inactive)
REMARK    1  A    between atoms: N_19  and  C_20 
REMARK    2  A    between atoms: C_24  and  C_26 
REMARK    3  A    between atoms: C_26  and  O_28 
REMARK    4  A    between atoms: O_28  and  C_29 
REMARK    5  A    between atoms: C_29  and  C_30 
REMARK    6  A    between atoms: C_30  and  C_32 
REMARK    7  A    between atoms: C_35  and  O_38 
REMARK    8  A    between atoms: O_38  and  C_39 
REMARK    9  A    between atoms: C_39  and  C_41 
ROOT
HETATM    1  C   UNL     1      11.445   0.409 -18.642  1.00  0.00     0.001 A 
HETATM    2  C   UNL     1      12.644   0.503 -17.940  1.00  0.00     0.001 A 
HETATM    3  C   UNL     1      13.584  -0.532 -17.992  1.00  0.00     0.010 A 
HETATM    4  C   UNL     1      13.323  -1.676 -18.752  1.00  0.00    -0.025 A 
HETATM    5  C   UNL     1      12.072  -1.787 -19.433  1.00  0.00    -0.025 A 
HETATM    6  C   UNL     1      11.157  -0.730 -19.386  1.00  0.00     0.010 A 
HETATM    7  C   UNL     1      11.888  -3.142 -20.156  1.00  0.00     0.086 C 
HETATM    8  C   UNL     1      12.139  -4.258 -19.116  1.00  0.00    -0.025 A 
HETATM    9  C   UNL     1      11.294  -5.324 -18.807  1.00  0.00     0.010 A 
HETATM   10  C   UNL     1      11.647  -6.215 -17.793  1.00  0.00     0.001 A 
HETATM   11  C   UNL     1      12.836  -6.050 -17.081  1.00  0.00     0.001 A 
HETATM   12  C   UNL     1      13.710  -5.010 -17.395  1.00  0.00     0.010 A 
HETATM   13  C   UNL     1      13.386  -4.123 -18.422  1.00  0.00    -0.025 A 
HETATM   14  C   UNL     1      14.223  -2.934 -18.918  1.00  0.00     0.086 C 
HETATM   15  C   UNL     1      14.422  -3.112 -20.459  1.00  0.00     0.122 A 
HETATM   16  C   UNL     1      13.053  -3.177 -21.177  1.00  0.00     0.122 A 
HETATM   17  C   UNL     1      13.102  -4.451 -21.961  1.00  0.00     0.238 A 
HETATM   18  O   UNL     1      12.134  -4.847 -22.598  1.00  0.00    -0.272 OA
HETATM   19  N   UNL     1      14.327  -5.055 -21.826  1.00  0.00    -0.252 N 
HETATM   20  C   UNL     1      15.125  -4.390 -20.907  1.00  0.00     0.238 A 
HETATM   21  O   UNL     1      16.254  -4.680 -20.549  1.00  0.00    -0.272 OA
HETATM   22 BR   UNL     1      15.937  -2.723 -18.030  1.00  0.00    -0.074 Br
HETATM   23 BR   UNL     1      10.139  -3.244 -21.015  1.00  0.00    -0.074 Br
ENDROOT
BRANCH  19  24
HETATM   24  C   UNL     1      14.632  -6.312 -22.456  1.00  0.00     0.046 A 
HETATM   25  C   UNL     1      14.663  -6.426 -23.861  1.00  0.00     0.030 A 
HETATM   26  C   UNL     1      14.710  -7.658 -24.512  1.00  0.00     0.003 A 
HETATM   27  C   UNL     1      14.765  -8.825 -23.763  1.00  0.00     0.018 A 
HETATM   28  C   UNL     1      14.838  -8.749 -22.369  1.00  0.00     0.041 A 
HETATM   29  C   UNL     1      14.808  -7.495 -21.724  1.00  0.00     0.048 A 
BRANCH  28  30
HETATM   30  C   UNL     1      14.764 -10.024 -21.605  1.00  0.00     0.293 C 
HETATM   31  O   UNL     1      13.903 -10.872 -21.783  1.00  0.00    -0.259 OA
BRANCH  30  32
HETATM   32  O   UNL     1      15.704 -10.054 -20.629  1.00  0.00    -0.310 OA
BRANCH  32  33
HETATM   33  C   UNL     1      15.234 -10.577 -19.379  1.00  0.00     0.263 C 
BRANCH  33  34
HETATM   34  C   UNL     1      14.508  -9.463 -18.629  1.00  0.00     0.183 C 
HETATM   35  O   UNL     1      13.289  -9.301 -18.722  1.00  0.00    -0.290 OA
BRANCH  34  36
HETATM   36  C   UNL     1      15.281  -8.532 -17.753  1.00  0.00     0.012 A 
HETATM   37  C   UNL     1      15.218  -8.551 -16.356  1.00  0.00     0.018 A 
HETATM   38  C   UNL     1      15.952  -7.615 -15.611  1.00  0.00     0.038 A 
HETATM   39  C   UNL     1      16.752  -6.670 -16.261  1.00  0.00     0.079 A 
HETATM   40  C   UNL     1      16.821  -6.643 -17.649  1.00  0.00     0.038 A 
HETATM   41  C   UNL     1      16.096  -7.579 -18.389  1.00  0.00     0.018 A 
BRANCH  39  42
HETATM   42  O   UNL     1      17.385  -5.713 -15.435  1.00  0.00    -0.273 OA
BRANCH  42  43
HETATM   43  C   UNL     1      17.003  -5.477 -14.108  1.00  0.00     0.322 C 
HETATM   44  O   UNL     1      17.562  -5.929 -13.115  1.00  0.00    -0.257 OA
BRANCH  43  45
HETATM   45  C   UNL     1      15.834  -4.625 -14.071  1.00  0.00     0.150 A 
HETATM   46  C   UNL     1      15.691  -3.281 -14.376  1.00  0.00     0.045 A 
HETATM   47  C   UNL     1      14.330  -2.954 -14.166  1.00  0.00     0.027 A 
HETATM   48  C   UNL     1      13.719  -4.113 -13.752  1.00  0.00     0.143 A 
HETATM   49  O   UNL     1      14.618  -5.130 -13.689  1.00  0.00    -0.317 OA
ENDBRANCH  43  45
ENDBRANCH  42  43
ENDBRANCH  39  42
ENDBRANCH  34  36
ENDBRANCH  33  34
ENDBRANCH  32  33
ENDBRANCH  30  32
ENDBRANCH  28  30
ENDBRANCH  19  24
TORSDOF 9
ENDMDL
MODEL 3
REMARK VINA RESULT:      -8.5      2.014      2.528
REMARK  9 active torsions:
REMARK  status: ('A' for Active; 'I' for Inactive)
REMARK    1  A    between atoms: N_19  and  C_20 
REMARK    2  A    between atoms: C_24  and  C_26 
REMARK    3  A    between atoms: C_26  and  O_28 
REMARK    4  A    between atoms: O_28  and  C_29 
REMARK    5  A    between atoms: C_29  and  C_30 
REMARK    6  A    between atoms: C_30  and  C_32 
REMARK    7  A    between atoms: C_35  and  O_38 
REMARK    8  A    between atoms: O_38  and  C_39 
REMARK    9  A    between atoms: C_39  and  C_41 
ROOT
HETATM    1  C   UNL     1      14.489  -6.407 -25.861  1.00  0.00     0.001 A 
HETATM    2  C   UNL     1      13.455  -5.535 -26.194  1.00  0.00     0.001 A 
HETATM    3  C   UNL     1      12.769  -4.828 -25.201  1.00  0.00     0.010 A 
HETATM    4  C   UNL     1      13.117  -4.995 -23.858  1.00  0.00    -0.025 A 
HETATM    5  C   UNL     1      14.147  -5.926 -23.517  1.00  0.00    -0.025 A 
HETATM    6  C   UNL     1      14.835  -6.604 -24.528  1.00  0.00     0.010 A 
HETATM    7  C   UNL     1      14.359  -6.070 -21.992  1.00  0.00     0.086 C 
HETATM    8  C   UNL     1      12.984  -6.396 -21.363  1.00  0.00    -0.025 A 
HETATM    9  C   UNL     1      12.678  -7.464 -20.520  1.00  0.00     0.010 A 
HETATM   10  C   UNL     1      11.364  -7.648 -20.086  1.00  0.00     0.001 A 
HETATM   11  C   UNL     1      10.352  -6.776 -20.489  1.00  0.00     0.001 A 
HETATM   12  C   UNL     1      10.643  -5.684 -21.306  1.00  0.00     0.010 A 
HETATM   13  C   UNL     1      11.954  -5.470 -21.731  1.00  0.00    -0.025 A 
HETATM   14  C   UNL     1      12.466  -4.323 -22.615  1.00  0.00     0.086 C 
HETATM   15  C   UNL     1      13.637  -3.627 -21.847  1.00  0.00     0.122 A 
HETATM   16  C   UNL     1      14.761  -4.645 -21.538  1.00  0.00     0.122 A 
HETATM   17  C   UNL     1      14.962  -4.541 -20.058  1.00  0.00     0.238 A 
HETATM   18  O   UNL     1      15.744  -5.274 -19.466  1.00  0.00    -0.272 OA
HETATM   19  N   UNL     1      14.157  -3.563 -19.528  1.00  0.00    -0.252 N 
HETATM   20  C   UNL     1      13.296  -3.040 -20.481  1.00  0.00     0.238 A 
HETATM   21  O   UNL     1      12.449  -2.175 -20.329  1.00  0.00    -0.272 OA
HETATM   22 BR   UNL     1      11.114  -3.022 -23.118  1.00  0.00    -0.074 Br
HETATM   23 BR   UNL     1      15.737  -7.395 -21.601  1.00  0.00    -0.074 Br
ENDROOT
BRANCH  19  24
HETATM   24  C   UNL     1      14.134  -3.275 -18.119  1.00  0.00     0.046 A 
HETATM   25  C   UNL     1      14.888  -2.208 -17.588  1.00  0.00     0.030 A 
HETATM   26  C   UNL     1      15.090  -2.042 -16.219  1.00  0.00     0.003 A 
HETATM   27  C   UNL     1      14.504  -2.930 -15.328  1.00  0.00     0.018 A 
HETATM   28  C   UNL     1      13.667  -3.941 -15.811  1.00  0.00     0.041 A 
HETATM   29  C   UNL     1      13.457  -4.086 -17.198  1.00  0.00     0.048 A 
BRANCH  28  30
HETATM   30  C   UNL     1      13.168  -4.946 -14.833  1.00  0.00     0.293 C 
HETATM   31  O   UNL     1      12.807  -4.669 -13.700  1.00  0.00    -0.259 OA
BRANCH  30  32
HETATM   32  O   UNL     1      13.277  -6.200 -15.336  1.00  0.00    -0.310 OA
BRANCH  32  33
HETATM   33  C   UNL     1      14.451  -6.903 -14.908  1.00  0.00     0.263 C 
BRANCH  33  34
HETATM   34  C   UNL     1      15.429  -6.973 -16.079  1.00  0.00     0.183 C 
HETATM   35  O   UNL     1      16.271  -6.095 -16.278  1.00  0.00    -0.290 OA
BRANCH  34  36
HETATM   36  C   UNL     1      15.376  -8.130 -17.022  1.00  0.00     0.012 A 
HETATM   37  C   UNL     1      14.195  -8.794 -17.368  1.00  0.00     0.018 A 
HETATM   38  C   UNL     1      14.241  -9.896 -18.236  1.00  0.00     0.038 A 
HETATM   39  C   UNL     1      15.463 -10.327 -18.761  1.00  0.00     0.079 A 
HETATM   40  C   UNL     1      16.643  -9.674 -18.423  1.00  0.00     0.038 A 
HETATM   41  C   UNL     1      16.595  -8.573 -17.566  1.00  0.00     0.018 A 
BRANCH  39  42
HETATM   42  O   UNL     1      15.425 -11.497 -19.555  1.00  0.00    -0.273 OA
BRANCH  42  43
HETATM   43  C   UNL     1      14.629 -11.615 -20.702  1.00  0.00     0.322 C 
HETATM   44  O   UNL     1      14.385 -10.712 -21.494  1.00  0.00    -0.257 OA
BRANCH  43  45
HETATM   45  C   UNL     1      14.120 -12.964 -20.817  1.00  0.00     0.150 A 
HETATM   46  C   UNL     1      12.973 -13.540 -20.297  1.00  0.00     0.045 A 
HETATM   47  C   UNL     1      12.963 -14.891 -20.718  1.00  0.00     0.027 A 
HETATM   48  C   UNL     1      14.098 -15.064 -21.473  1.00  0.00     0.143 A 
HETATM   49  O   UNL     1      14.807 -13.905 -21.540  1.00  0.00    -0.317 OA
ENDBRANCH  43  45
ENDBRANCH  42  43
ENDBRANCH  39  42
ENDBRANCH  34  36
ENDBRANCH  33  34
ENDBRANCH  32  33
ENDBRANCH  30  32
ENDBRANCH  28  30
ENDBRANCH  19  24
TORSDOF 9
ENDMDL
MODEL 4
REMARK VINA RESULT:      -8.5      4.107      7.421
REMARK  9 active torsions:
REMARK  status: ('A' for Active; 'I' for Inactive)
REMARK    1  A    between atoms: N_19  and  C_20 
REMARK    2  A    between atoms: C_24  and  C_26 
REMARK    3  A    between atoms: C_26  and  O_28 
REMARK    4  A    between atoms: O_28  and  C_29 
REMARK    5  A    between atoms: C_29  and  C_30 
REMARK    6  A    between atoms: C_30  and  C_32 
REMARK    7  A    between atoms: C_35  and  O_38 
REMARK    8  A    between atoms: O_38  and  C_39 
REMARK    9  A    between atoms: C_39  and  C_41 
ROOT
HETATM    1  C   UNL     1      23.421  -0.160 -17.936  1.00  0.00     0.001 A 
HETATM    2  C   UNL     1      23.266  -1.087 -18.963  1.00  0.00     0.001 A 
HETATM    3  C   UNL     1      22.036  -1.718 -19.176  1.00  0.00     0.010 A 
HETATM    4  C   UNL     1      20.947  -1.423 -18.351  1.00  0.00    -0.025 A 
HETATM    5  C   UNL     1      21.124  -0.505 -17.270  1.00  0.00    -0.025 A 
HETATM    6  C   UNL     1      22.356   0.132 -17.090  1.00  0.00     0.010 A 
HETATM    7  C   UNL     1      19.860  -0.346 -16.391  1.00  0.00     0.086 C 
HETATM    8  C   UNL     1      19.424  -1.762 -15.949  1.00  0.00    -0.025 A 
HETATM    9  C   UNL     1      19.185  -2.199 -14.646  1.00  0.00     0.010 A 
HETATM   10  C   UNL     1      18.854  -3.534 -14.415  1.00  0.00     0.001 A 
HETATM   11  C   UNL     1      18.761  -4.439 -15.473  1.00  0.00     0.001 A 
HETATM   12  C   UNL     1      18.964  -4.016 -16.786  1.00  0.00     0.010 A 
HETATM   13  C   UNL     1      19.273  -2.679 -17.040  1.00  0.00    -0.025 A 
HETATM   14  C   UNL     1      19.515  -2.029 -18.410  1.00  0.00     0.086 C 
HETATM   15  C   UNL     1      18.543  -0.809 -18.527  1.00  0.00     0.122 A 
HETATM   16  C   UNL     1      18.791   0.193 -17.375  1.00  0.00     0.122 A 
HETATM   17  C   UNL     1      17.449   0.369 -16.736  1.00  0.00     0.238 A 
HETATM   18  O   UNL     1      17.304   1.054 -15.733  1.00  0.00    -0.272 OA
HETATM   19  N   UNL     1      16.492  -0.342 -17.418  1.00  0.00    -0.252 N 
HETATM   20  C   UNL     1      17.053  -1.120 -18.420  1.00  0.00     0.238 A 
HETATM   21  O   UNL     1      16.481  -1.874 -19.190  1.00  0.00    -0.272 OA
HETATM   22 BR   UNL     1      19.295  -3.224 -19.925  1.00  0.00    -0.074 Br
HETATM   23 BR   UNL     1      20.191   0.876 -14.906  1.00  0.00    -0.074 Br
ENDROOT
BRANCH  19  24
HETATM   24  C   UNL     1      15.117  -0.368 -16.998  1.00  0.00     0.046 A 
HETATM   25  C   UNL     1      14.731  -1.072 -15.838  1.00  0.00     0.030 A 
HETATM   26  C   UNL     1      13.396  -1.330 -15.528  1.00  0.00     0.003 A 
HETATM   27  C   UNL     1      12.396  -0.852 -16.363  1.00  0.00     0.018 A 
HETATM   28  C   UNL     1      12.734  -0.065 -17.468  1.00  0.00     0.041 A 
HETATM   29  C   UNL     1      14.088   0.204 -17.759  1.00  0.00     0.048 A 
BRANCH  28  30
HETATM   30  C   UNL     1      11.642   0.314 -18.404  1.00  0.00     0.293 C 
HETATM   31  O   UNL     1      11.359   1.468 -18.684  1.00  0.00    -0.259 OA
BRANCH  30  32
HETATM   32  O   UNL     1      10.949  -0.782 -18.802  1.00  0.00    -0.310 OA
BRANCH  32  33
HETATM   33  C   UNL     1      11.512  -1.449 -19.940  1.00  0.00     0.263 C 
BRANCH  33  34
HETATM   34  C   UNL     1      11.204  -2.941 -19.828  1.00  0.00     0.183 C 
HETATM   35  O   UNL     1      10.216  -3.445 -20.367  1.00  0.00    -0.290 OA
BRANCH  34  36
HETATM   36  C   UNL     1      12.113  -3.830 -19.045  1.00  0.00     0.012 A 
HETATM   37  C   UNL     1      11.728  -5.071 -18.528  1.00  0.00     0.018 A 
HETATM   38  C   UNL     1      12.637  -5.827 -17.772  1.00  0.00     0.038 A 
HETATM   39  C   UNL     1      13.930  -5.347 -17.542  1.00  0.00     0.079 A 
HETATM   40  C   UNL     1      14.323  -4.114 -18.051  1.00  0.00     0.038 A 
HETATM   41  C   UNL     1      13.420  -3.367 -18.809  1.00  0.00     0.018 A 
BRANCH  39  42
HETATM   42  O   UNL     1      14.749  -6.133 -16.698  1.00  0.00    -0.273 OA
BRANCH  42  43
HETATM   43  C   UNL     1      14.303  -6.661 -15.479  1.00  0.00     0.322 C 
HETATM   44  O   UNL     1      14.092  -7.847 -15.253  1.00  0.00    -0.257 OA
BRANCH  43  45
HETATM   45  C   UNL     1      14.114  -5.598 -14.516  1.00  0.00     0.150 A 
HETATM   46  C   UNL     1      15.035  -4.762 -13.907  1.00  0.00     0.045 A 
HETATM   47  C   UNL     1      14.308  -3.904 -13.049  1.00  0.00     0.027 A 
HETATM   48  C   UNL     1      12.988  -4.258 -13.184  1.00  0.00     0.143 A 
HETATM   49  O   UNL     1      12.857  -5.283 -14.068  1.00  0.00    -0.317 OA
ENDBRANCH  43  45
ENDBRANCH  42  43
ENDBRANCH  39  42
ENDBRANCH  34  36
ENDBRANCH  33  34
ENDBRANCH  32  33
ENDBRANCH  30  32
ENDBRANCH  28  30
ENDBRANCH  19  24
TORSDOF 9
ENDMDL
MODEL 5
REMARK VINA RESULT:      -8.5      2.477      6.219
REMARK  9 active torsions:
REMARK  status: ('A' for Active; 'I' for Inactive)
REMARK    1  A    between atoms: N_19  and  C_20 
REMARK    2  A    between atoms: C_24  and  C_26 
REMARK    3  A    between atoms: C_26  and  O_28 
REMARK    4  A    between atoms: O_28  and  C_29 
REMARK    5  A    between atoms: C_29  and  C_30 
REMARK    6  A    between atoms: C_30  and  C_32 
REMARK    7  A    between atoms: C_35  and  O_38 
REMARK    8  A    between atoms: O_38  and  C_39 
REMARK    9  A    between atoms: C_39  and  C_41 
ROOT
HETATM    1  C   UNL     1      13.087 -11.715 -20.383  1.00  0.00     0.001 A 
HETATM    2  C   UNL     1      14.325 -12.265 -20.059  1.00  0.00     0.001 A 
HETATM    3  C   UNL     1      15.284 -11.512 -19.375  1.00  0.00     0.010 A 
HETATM    4  C   UNL     1      15.007 -10.191 -19.012  1.00  0.00    -0.025 A 
HETATM    5  C   UNL     1      13.754  -9.616 -19.387  1.00  0.00    -0.025 A 
HETATM    6  C   UNL     1      12.800 -10.395 -20.051  1.00  0.00     0.010 A 
HETATM    7  C   UNL     1      13.626  -8.124 -18.998  1.00  0.00     0.086 C 
HETATM    8  C   UNL     1      14.855  -7.388 -19.579  1.00  0.00    -0.025 A 
HETATM    9  C   UNL     1      14.849  -6.254 -20.391  1.00  0.00     0.010 A 
HETATM   10  C   UNL     1      16.053  -5.748 -20.881  1.00  0.00     0.001 A 
HETATM   11  C   UNL     1      17.265  -6.366 -20.570  1.00  0.00     0.001 A 
HETATM   12  C   UNL     1      17.296  -7.482 -19.735  1.00  0.00     0.010 A 
HETATM   13  C   UNL     1      16.105  -7.988 -19.215  1.00  0.00    -0.025 A 
HETATM   14  C   UNL     1      15.942  -9.191 -18.274  1.00  0.00     0.086 C 
HETATM   15  C   UNL     1      15.137  -8.701 -17.025  1.00  0.00     0.122 A 
HETATM   16  C   UNL     1      13.765  -8.132 -17.455  1.00  0.00     0.122 A 
HETATM   17  C   UNL     1      13.727  -6.758 -16.861  1.00  0.00     0.238 A 
HETATM   18  O   UNL     1      12.793  -5.996 -17.073  1.00  0.00    -0.272 OA
HETATM   19  N   UNL     1      14.853  -6.524 -16.112  1.00  0.00    -0.252 N 
HETATM   20  C   UNL     1      15.762  -7.566 -16.220  1.00  0.00     0.238 A 
HETATM   21  O   UNL     1      16.860  -7.657 -15.696  1.00  0.00    -0.272 OA
HETATM   22 BR   UNL     1      17.609 -10.023 -17.726  1.00  0.00    -0.074 Br
HETATM   23 BR   UNL     1      11.917  -7.392 -19.590  1.00  0.00    -0.074 Br
ENDROOT
BRANCH  19  24
HETATM   24  C   UNL     1      15.083  -5.267 -15.451  1.00  0.00     0.046 A 
HETATM   25  C   UNL     1      14.625  -5.050 -14.134  1.00  0.00     0.030 A 
HETATM   26  C   UNL     1      14.607  -3.786 -13.548  1.00  0.00     0.003 A 
HETATM   27  C   UNL     1      15.085  -2.694 -14.259  1.00  0.00     0.018 A 
HETATM   28  C   UNL     1      15.639  -2.886 -15.528  1.00  0.00     0.041 A 
HETATM   29  C   UNL     1      15.669  -4.173 -16.102  1.00  0.00     0.048 A 
BRANCH  28  30
HETATM   30  C   UNL     1      16.019  -1.673 -16.303  1.00  0.00     0.293 C 
HETATM   31  O   UNL     1      16.992  -1.616 -17.038  1.00  0.00    -0.259 OA
BRANCH  30  32
HETATM   32  O   UNL     1      15.210  -0.631 -15.991  1.00  0.00    -0.310 OA
BRANCH  32  33
HETATM   33  C   UNL     1      14.438  -0.137 -17.095  1.00  0.00     0.263 C 
BRANCH  33  34
HETATM   34  C   UNL     1      13.056  -0.786 -17.049  1.00  0.00     0.183 C 
HETATM   35  O   UNL     1      12.329  -0.699 -16.057  1.00  0.00    -0.290 OA
BRANCH  34  36
HETATM   36  C   UNL     1      12.556  -1.551 -18.229  1.00  0.00     0.012 A 
HETATM   37  C   UNL     1      11.523  -1.107 -19.060  1.00  0.00     0.018 A 
HETATM   38  C   UNL     1      11.091  -1.908 -20.128  1.00  0.00     0.038 A 
HETATM   39  C   UNL     1      11.698  -3.144 -20.370  1.00  0.00     0.079 A 
HETATM   40  C   UNL     1      12.726  -3.595 -19.550  1.00  0.00     0.038 A 
HETATM   41  C   UNL     1      13.159  -2.794 -18.492  1.00  0.00     0.018 A 
BRANCH  39  42
HETATM   42  O   UNL     1      11.141  -3.921 -21.413  1.00  0.00    -0.273 OA
BRANCH  42  43
HETATM   43  C   UNL     1      11.431  -3.703 -22.766  1.00  0.00     0.322 C 
HETATM   44  O   UNL     1      10.950  -2.815 -23.462  1.00  0.00    -0.257 OA
BRANCH  43  45
HETATM   45  C   UNL     1      12.379  -4.689 -23.237  1.00  0.00     0.150 A 
HETATM   46  C   UNL     1      13.692  -4.546 -23.655  1.00  0.00     0.045 A 
HETATM   47  C   UNL     1      14.153  -5.835 -24.011  1.00  0.00     0.027 A 
HETATM   48  C   UNL     1      13.103  -6.692 -23.786  1.00  0.00     0.143 A 
HETATM   49  O   UNL     1      12.023  -6.010 -23.318  1.00  0.00    -0.317 OA
ENDBRANCH  43  45
ENDBRANCH  42  43
ENDBRANCH  39  42
ENDBRANCH  34  36
ENDBRANCH  33  34
ENDBRANCH  32  33
ENDBRANCH  30  32
ENDBRANCH  28  30
ENDBRANCH  19  24
TORSDOF 9
ENDMDL
MODEL 6
REMARK VINA RESULT:      -8.5      1.168      1.467
REMARK  9 active torsions:
REMARK  status: ('A' for Active; 'I' for Inactive)
REMARK    1  A    between atoms: N_19  and  C_20 
REMARK    2  A    between atoms: C_24  and  C_26 
REMARK    3  A    between atoms: C_26  and  O_28 
REMARK    4  A    between atoms: O_28  and  C_29 
REMARK    5  A    between atoms: C_29  and  C_30 
REMARK    6  A    between atoms: C_30  and  C_32 
REMARK    7  A    between atoms: C_35  and  O_38 
REMARK    8  A    between atoms: O_38  and  C_39 
REMARK    9  A    between atoms: C_39  and  C_41 
ROOT
HETATM    1  C   UNL     1      14.138  -5.609 -25.222  1.00  0.00     0.001 A 
HETATM    2  C   UNL     1      13.020  -4.796 -25.388  1.00  0.00     0.001 A 
HETATM    3  C   UNL     1      12.411  -4.185 -24.287  1.00  0.00     0.010 A 
HETATM    4  C   UNL     1      12.922  -4.392 -23.003  1.00  0.00    -0.025 A 
HETATM    5  C   UNL     1      14.042  -5.264 -22.832  1.00  0.00    -0.025 A 
HETATM    6  C   UNL     1      14.649  -5.845 -23.950  1.00  0.00     0.010 A 
HETATM    7  C   UNL     1      14.437  -5.465 -21.351  1.00  0.00     0.086 C 
HETATM    8  C   UNL     1      13.169  -5.915 -20.590  1.00  0.00    -0.025 A 
HETATM    9  C   UNL     1      13.031  -7.040 -19.778  1.00  0.00     0.010 A 
HETATM   10  C   UNL     1      11.791  -7.335 -19.209  1.00  0.00     0.001 A 
HETATM   11  C   UNL     1      10.686  -6.517 -19.447  1.00  0.00     0.001 A 
HETATM   12  C   UNL     1      10.809  -5.370 -20.231  1.00  0.00     0.010 A 
HETATM   13  C   UNL     1      12.047  -5.046 -20.788  1.00  0.00    -0.025 A 
HETATM   14  C   UNL     1      12.378  -3.826 -21.659  1.00  0.00     0.086 C 
HETATM   15  C   UNL     1      13.585  -3.087 -20.991  1.00  0.00     0.122 A 
HETATM   16  C   UNL     1      14.798  -4.039 -20.867  1.00  0.00     0.122 A 
HETATM   17  C   UNL     1      15.163  -3.991 -19.416  1.00  0.00     0.238 A 
HETATM   18  O   UNL     1      16.053  -4.696 -18.957  1.00  0.00    -0.272 OA
HETATM   19  N   UNL     1      14.365  -3.098 -18.745  1.00  0.00    -0.252 N 
HETATM   20  C   UNL     1      13.368  -2.591 -19.565  1.00  0.00     0.238 A 
HETATM   21  O   UNL     1      12.491  -1.795 -19.272  1.00  0.00    -0.272 OA
HETATM   22 BR   UNL     1      10.898  -2.599 -21.934  1.00  0.00    -0.074 Br
HETATM   23 BR   UNL     1      15.933  -6.708 -21.191  1.00  0.00    -0.074 Br
ENDROOT
BRANCH  19  24
HETATM   24  C   UNL     1      14.487  -2.879 -17.329  1.00  0.00     0.046 A 
HETATM   25  C   UNL     1      15.408  -1.939 -16.821  1.00  0.00     0.030 A 
HETATM   26  C   UNL     1      15.734  -1.866 -15.468  1.00  0.00     0.003 A 
HETATM   27  C   UNL     1      15.113  -2.720 -14.567  1.00  0.00     0.018 A 
HETATM   28  C   UNL     1      14.121  -3.597 -15.018  1.00  0.00     0.041 A 
HETATM   29  C   UNL     1      13.787  -3.647 -16.388  1.00  0.00     0.048 A 
BRANCH  28  30
HETATM   30  C   UNL     1      13.577  -4.581 -14.043  1.00  0.00     0.293 C 
HETATM   31  O   UNL     1      12.579  -4.386 -13.368  1.00  0.00    -0.259 OA
BRANCH  30  32
HETATM   32  O   UNL     1      14.399  -5.653 -13.935  1.00  0.00    -0.310 OA
BRANCH  32  33
HETATM   33  C   UNL     1      14.164  -6.674 -14.914  1.00  0.00     0.263 C 
BRANCH  33  34
HETATM   34  C   UNL     1      15.445  -6.875 -15.722  1.00  0.00     0.183 C 
HETATM   35  O   UNL     1      16.446  -6.179 -15.539  1.00  0.00    -0.290 OA
BRANCH  34  36
HETATM   36  C   UNL     1      15.504  -7.940 -16.767  1.00  0.00     0.012 A 
HETATM   37  C   UNL     1      16.618  -8.166 -17.580  1.00  0.00     0.018 A 
HETATM   38  C   UNL     1      16.575  -9.167 -18.563  1.00  0.00     0.038 A 
HETATM   39  C   UNL     1      15.424  -9.944 -18.726  1.00  0.00     0.079 A 
HETATM   40  C   UNL     1      14.310  -9.726 -17.922  1.00  0.00     0.038 A 
HETATM   41  C   UNL     1      14.357  -8.735 -16.940  1.00  0.00     0.018 A 
BRANCH  39  42
HETATM   42  O   UNL     1      15.438 -10.867 -19.797  1.00  0.00    -0.273 OA
BRANCH  42  43
HETATM   43  C   UNL     1      14.276 -11.456 -20.312  1.00  0.00     0.322 C 
HETATM   44  O   UNL     1      13.852 -12.569 -20.019  1.00  0.00    -0.257 OA
BRANCH  43  45
HETATM   45  C   UNL     1      13.643 -10.563 -21.258  1.00  0.00     0.150 A 
HETATM   46  C   UNL     1      14.194  -9.765 -22.247  1.00  0.00     0.045 A 
HETATM   47  C   UNL     1      13.120  -9.094 -22.880  1.00  0.00     0.027 A 
HETATM   48  C   UNL     1      11.978  -9.522 -22.248  1.00  0.00     0.143 A 
HETATM   49  O   UNL     1      12.281 -10.410 -21.264  1.00  0.00    -0.317 OA
ENDBRANCH  43  45
ENDBRANCH  42  43
ENDBRANCH  39  42
ENDBRANCH  34  36
ENDBRANCH  33  34
ENDBRANCH  32  33
ENDBRANCH  30  32
ENDBRANCH  28  30
ENDBRANCH  19  24
TORSDOF 9
ENDMDL
MODEL 7
REMARK VINA RESULT:      -8.4      2.095      6.865
REMARK  9 active torsions:
REMARK  status: ('A' for Active; 'I' for Inactive)
REMARK    1  A    between atoms: N_19  and  C_20 
REMARK    2  A    between atoms: C_24  and  C_26 
REMARK    3  A    between atoms: C_26  and  O_28 
REMARK    4  A    between atoms: O_28  and  C_29 
REMARK    5  A    between atoms: C_29  and  C_30 
REMARK    6  A    between atoms: C_30  and  C_32 
REMARK    7  A    between atoms: C_35  and  O_38 
REMARK    8  A    between atoms: O_38  and  C_39 
REMARK    9  A    between atoms: C_39  and  C_41 
ROOT
HETATM    1  C   UNL     1      11.569   0.019 -18.961  1.00  0.00     0.001 A 
HETATM    2  C   UNL     1      12.706  -0.066 -18.161  1.00  0.00     0.001 A 
HETATM    3  C   UNL     1      13.542  -1.186 -18.223  1.00  0.00     0.010 A 
HETATM    4  C   UNL     1      13.238  -2.236 -19.094  1.00  0.00    -0.025 A 
HETATM    5  C   UNL     1      12.046  -2.165 -19.880  1.00  0.00    -0.025 A 
HETATM    6  C   UNL     1      11.238  -1.025 -19.818  1.00  0.00     0.010 A 
HETATM    7  C   UNL     1      11.796  -3.436 -20.725  1.00  0.00     0.086 C 
HETATM    8  C   UNL     1      11.845  -4.646 -19.765  1.00  0.00    -0.025 A 
HETATM    9  C   UNL     1      10.877  -5.639 -19.614  1.00  0.00     0.010 A 
HETATM   10  C   UNL     1      11.051  -6.636 -18.653  1.00  0.00     0.001 A 
HETATM   11  C   UNL     1      12.184  -6.649 -17.838  1.00  0.00     0.001 A 
HETATM   12  C   UNL     1      13.179  -5.684 -17.994  1.00  0.00     0.010 A 
HETATM   13  C   UNL     1      13.034  -4.694 -18.966  1.00  0.00    -0.025 A 
HETATM   14  C   UNL     1      14.023  -3.565 -19.292  1.00  0.00     0.086 C 
HETATM   15  C   UNL     1      14.338  -3.647 -20.822  1.00  0.00     0.122 A 
HETATM   16  C   UNL     1      13.037  -3.515 -21.650  1.00  0.00     0.122 A 
HETATM   17  C   UNL     1      13.030  -4.725 -22.531  1.00  0.00     0.238 A 
HETATM   18  O   UNL     1      12.088  -4.970 -23.273  1.00  0.00    -0.272 OA
HETATM   19  N   UNL     1      14.174  -5.462 -22.350  1.00  0.00    -0.252 N 
HETATM   20  C   UNL     1      14.949  -4.954 -21.318  1.00  0.00     0.238 A 
HETATM   21  O   UNL     1      16.010  -5.385 -20.897  1.00  0.00    -0.272 OA
HETATM   22 BR   UNL     1      15.665  -3.600 -18.256  1.00  0.00    -0.074 Br
HETATM   23 BR   UNL     1      10.128  -3.291 -21.726  1.00  0.00    -0.074 Br
ENDROOT
BRANCH  19  24
HETATM   24  C   UNL     1      14.409  -6.693 -23.056  1.00  0.00     0.046 A 
HETATM   25  C   UNL     1      15.004  -6.688 -24.335  1.00  0.00     0.030 A 
HETATM   26  C   UNL     1      15.028  -7.817 -25.153  1.00  0.00     0.003 A 
HETATM   27  C   UNL     1      14.483  -9.008 -24.692  1.00  0.00     0.018 A 
HETATM   28  C   UNL     1      13.976  -9.078 -23.392  1.00  0.00     0.041 A 
HETATM   29  C   UNL     1      13.974  -7.933 -22.568  1.00  0.00     0.048 A 
BRANCH  28  30
HETATM   30  C   UNL     1      13.287 -10.334 -22.988  1.00  0.00     0.293 C 
HETATM   31  O   UNL     1      13.031 -11.245 -23.760  1.00  0.00    -0.259 OA
BRANCH  30  32
HETATM   32  O   UNL     1      12.892 -10.270 -21.693  1.00  0.00    -0.310 OA
BRANCH  32  33
HETATM   33  C   UNL     1      13.133 -11.471 -20.947  1.00  0.00     0.263 C 
BRANCH  33  34
HETATM   34  C   UNL     1      14.575 -11.448 -20.443  1.00  0.00     0.183 C 
HETATM   35  O   UNL     1      15.348 -12.387 -20.640  1.00  0.00    -0.290 OA
BRANCH  34  36
HETATM   36  C   UNL     1      15.078 -10.262 -19.688  1.00  0.00     0.012 A 
HETATM   37  C   UNL     1      16.112  -9.437 -20.140  1.00  0.00     0.018 A 
HETATM   38  C   UNL     1      16.547  -8.363 -19.349  1.00  0.00     0.038 A 
HETATM   39  C   UNL     1      15.943  -8.110 -18.113  1.00  0.00     0.079 A 
HETATM   40  C   UNL     1      14.914  -8.924 -17.654  1.00  0.00     0.038 A 
HETATM   41  C   UNL     1      14.477  -9.988 -18.446  1.00  0.00     0.018 A 
BRANCH  39  42
HETATM   42  O   UNL     1      16.503  -7.063 -17.345  1.00  0.00    -0.273 OA
BRANCH  42  43
HETATM   43  C   UNL     1      16.698  -7.151 -15.961  1.00  0.00     0.322 C 
HETATM   44  O   UNL     1      17.515  -7.876 -15.403  1.00  0.00    -0.257 OA
BRANCH  43  45
HETATM   45  C   UNL     1      15.784  -6.267 -15.272  1.00  0.00     0.150 A 
HETATM   46  C   UNL     1      15.958  -4.971 -14.815  1.00  0.00     0.045 A 
HETATM   47  C   UNL     1      14.740  -4.580 -14.212  1.00  0.00     0.027 A 
HETATM   48  C   UNL     1      13.890  -5.652 -14.337  1.00  0.00     0.143 A 
HETATM   49  O   UNL     1      14.510  -6.680 -14.976  1.00  0.00    -0.317 OA
ENDBRANCH  43  45
ENDBRANCH  42  43
ENDBRANCH  39  42
ENDBRANCH  34  36
ENDBRANCH  33  34
ENDBRANCH  32  33
ENDBRANCH  30  32
ENDBRANCH  28  30
ENDBRANCH  19  24
TORSDOF 9
ENDMDL
MODEL 8
REMARK VINA RESULT:      -8.3      4.415      7.600
REMARK  9 active torsions:
REMARK  status: ('A' for Active; 'I' for Inactive)
REMARK    1  A    between atoms: N_19  and  C_20 
REMARK    2  A    between atoms: C_24  and  C_26 
REMARK    3  A    between atoms: C_26  and  O_28 
REMARK    4  A    between atoms: O_28  and  C_29 
REMARK    5  A    between atoms: C_29  and  C_30 
REMARK    6  A    between atoms: C_30  and  C_32 
REMARK    7  A    between atoms: C_35  and  O_38 
REMARK    8  A    between atoms: O_38  and  C_39 
REMARK    9  A    between atoms: C_39  and  C_41 
ROOT
HETATM    1  C   UNL     1      13.441  -5.897 -14.877  1.00  0.00     0.001 A 
HETATM    2  C   UNL     1      13.387  -6.550 -16.106  1.00  0.00     0.001 A 
HETATM    3  C   UNL     1      13.670  -5.864 -17.292  1.00  0.00     0.010 A 
HETATM    4  C   UNL     1      14.008  -4.508 -17.251  1.00  0.00    -0.025 A 
HETATM    5  C   UNL     1      14.017  -3.832 -15.991  1.00  0.00    -0.025 A 
HETATM    6  C   UNL     1      13.754  -4.543 -14.816  1.00  0.00     0.010 A 
HETATM    7  C   UNL     1      14.319  -2.320 -16.113  1.00  0.00     0.086 C 
HETATM    8  C   UNL     1      13.322  -1.730 -17.136  1.00  0.00    -0.025 A 
HETATM    9  C   UNL     1      12.477  -0.636 -16.951  1.00  0.00     0.010 A 
HETATM   10  C   UNL     1      11.589  -0.268 -17.963  1.00  0.00     0.001 A 
HETATM   11  C   UNL     1      11.536  -0.985 -19.159  1.00  0.00     0.001 A 
HETATM   12  C   UNL     1      12.394  -2.063 -19.377  1.00  0.00     0.010 A 
HETATM   13  C   UNL     1      13.305  -2.430 -18.386  1.00  0.00    -0.025 A 
HETATM   14  C   UNL     1      14.331  -3.571 -18.450  1.00  0.00     0.086 C 
HETATM   15  C   UNL     1      15.735  -2.955 -18.139  1.00  0.00     0.122 A 
HETATM   16  C   UNL     1      15.731  -2.275 -16.749  1.00  0.00     0.122 A 
HETATM   17  C   UNL     1      16.207  -0.880 -17.013  1.00  0.00     0.238 A 
HETATM   18  O   UNL     1      16.254  -0.042 -16.123  1.00  0.00    -0.272 OA
HETATM   19  N   UNL     1      16.534  -0.724 -18.337  1.00  0.00    -0.252 N 
HETATM   20  C   UNL     1      16.212  -1.851 -19.078  1.00  0.00     0.238 A 
HETATM   21  O   UNL     1      16.358  -2.025 -20.277  1.00  0.00    -0.272 OA
HETATM   22 BR   UNL     1      14.369  -4.535 -20.135  1.00  0.00    -0.074 Br
HETATM   23 BR   UNL     1      14.260  -1.453 -14.366  1.00  0.00    -0.074 Br
ENDROOT
BRANCH  19  24
HETATM   24  C   UNL     1      16.993   0.532 -18.866  1.00  0.00     0.046 A 
HETATM   25  C   UNL     1      16.104   1.615 -19.029  1.00  0.00     0.030 A 
HETATM   26  C   UNL     1      16.441   2.757 -19.755  1.00  0.00     0.003 A 
HETATM   27  C   UNL     1      17.705   2.863 -20.316  1.00  0.00     0.018 A 
HETATM   28  C   UNL     1      18.648   1.856 -20.092  1.00  0.00     0.041 A 
HETATM   29  C   UNL     1      18.301   0.714 -19.339  1.00  0.00     0.048 A 
BRANCH  28  30
HETATM   30  C   UNL     1      19.943   1.950 -20.818  1.00  0.00     0.293 C 
HETATM   31  O   UNL     1      20.445   3.005 -21.174  1.00  0.00    -0.259 OA
BRANCH  30  32
HETATM   32  O   UNL     1      20.416   0.716 -21.119  1.00  0.00    -0.310 OA
BRANCH  32  33
HETATM   33  C   UNL     1      21.836   0.581 -20.976  1.00  0.00     0.263 C 
BRANCH  33  34
HETATM   34  C   UNL     1      22.127  -0.714 -20.221  1.00  0.00     0.183 C 
HETATM   35  O   UNL     1      23.013  -1.493 -20.580  1.00  0.00    -0.290 OA
BRANCH  34  36
HETATM   36  C   UNL     1      21.324  -1.065 -19.012  1.00  0.00     0.012 A 
HETATM   37  C   UNL     1      21.445  -0.406 -17.784  1.00  0.00     0.018 A 
HETATM   38  C   UNL     1      20.674  -0.824 -16.688  1.00  0.00     0.038 A 
HETATM   39  C   UNL     1      19.780  -1.891 -16.823  1.00  0.00     0.079 A 
HETATM   40  C   UNL     1      19.652  -2.552 -18.039  1.00  0.00     0.038 A 
HETATM   41  C   UNL     1      20.414  -2.131 -19.130  1.00  0.00     0.018 A 
BRANCH  39  42
HETATM   42  O   UNL     1      19.111  -2.299 -15.645  1.00  0.00    -0.273 OA
BRANCH  42  43
HETATM   43  C   UNL     1      19.517  -3.399 -14.879  1.00  0.00     0.322 C 
HETATM   44  O   UNL     1      20.545  -3.462 -14.214  1.00  0.00    -0.257 OA
BRANCH  43  45
HETATM   45  C   UNL     1      18.550  -4.469 -14.993  1.00  0.00     0.150 A 
HETATM   46  C   UNL     1      18.091  -5.151 -16.108  1.00  0.00     0.045 A 
HETATM   47  C   UNL     1      17.147  -6.100 -15.650  1.00  0.00     0.027 A 
HETATM   48  C   UNL     1      17.086  -5.950 -14.286  1.00  0.00     0.143 A 
HETATM   49  O   UNL     1      17.930  -4.966 -13.876  1.00  0.00    -0.317 OA
ENDBRANCH  43  45
ENDBRANCH  42  43
ENDBRANCH  39  42
ENDBRANCH  34  36
ENDBRANCH  33  34
ENDBRANCH  32  33
ENDBRANCH  30  32
ENDBRANCH  28  30
ENDBRANCH  19  24
TORSDOF 9
ENDMDL
MODEL 9
REMARK VINA RESULT:      -8.2      2.256      3.239
REMARK  9 active torsions:
REMARK  status: ('A' for Active; 'I' for Inactive)
REMARK    1  A    between atoms: N_19  and  C_20 
REMARK    2  A    between atoms: C_24  and  C_26 
REMARK    3  A    between atoms: C_26  and  O_28 
REMARK    4  A    between atoms: O_28  and  C_29 
REMARK    5  A    between atoms: C_29  and  C_30 
REMARK    6  A    between atoms: C_30  and  C_32 
REMARK    7  A    between atoms: C_35  and  O_38 
REMARK    8  A    between atoms: O_38  and  C_39 
REMARK    9  A    between atoms: C_39  and  C_41 
ROOT
HETATM    1  C   UNL     1      13.783  -5.454 -24.965  1.00  0.00     0.001 A 
HETATM    2  C   UNL     1      12.695  -4.584 -24.969  1.00  0.00     0.001 A 
HETATM    3  C   UNL     1      12.295  -3.935 -23.796  1.00  0.00     0.010 A 
HETATM    4  C   UNL     1      12.987  -4.160 -22.603  1.00  0.00    -0.025 A 
HETATM    5  C   UNL     1      14.074  -5.088 -22.594  1.00  0.00    -0.025 A 
HETATM    6  C   UNL     1      14.471  -5.707 -23.783  1.00  0.00     0.010 A 
HETATM    7  C   UNL     1      14.682  -5.300 -21.188  1.00  0.00     0.086 C 
HETATM    8  C   UNL     1      13.525  -5.678 -20.235  1.00  0.00    -0.025 A 
HETATM    9  C   UNL     1      13.457  -6.788 -19.394  1.00  0.00     0.010 A 
HETATM   10  C   UNL     1      12.306  -7.014 -18.638  1.00  0.00     0.001 A 
HETATM   11  C   UNL     1      11.220  -6.141 -18.716  1.00  0.00     0.001 A 
HETATM   12  C   UNL     1      11.280  -5.008 -19.525  1.00  0.00     0.010 A 
HETATM   13  C   UNL     1      12.431  -4.752 -20.270  1.00  0.00    -0.025 A 
HETATM   14  C   UNL     1      12.686  -3.557 -21.200  1.00  0.00     0.086 C 
HETATM   15  C   UNL     1      14.017  -2.878 -20.737  1.00  0.00     0.122 A 
HETATM   16  C   UNL     1      15.185  -3.891 -20.786  1.00  0.00     0.122 A 
HETATM   17  C   UNL     1      15.772  -3.853 -19.409  1.00  0.00     0.238 A 
HETATM   18  O   UNL     1      16.685  -4.600 -19.082  1.00  0.00    -0.272 OA
HETATM   19  N   UNL     1      15.133  -2.915 -18.637  1.00  0.00    -0.252 N 
HETATM   20  C   UNL     1      14.048  -2.362 -19.301  1.00  0.00     0.238 A 
HETATM   21  O   UNL     1      13.269  -1.519 -18.888  1.00  0.00    -0.272 OA
HETATM   22 BR   UNL     1      11.245  -2.256 -21.263  1.00  0.00    -0.074 Br
HETATM   23 BR   UNL     1      16.120  -6.619 -21.241  1.00  0.00    -0.074 Br
ENDROOT
BRANCH  19  24
HETATM   24  C   UNL     1      15.483  -2.693 -17.260  1.00  0.00     0.046 A 
HETATM   25  C   UNL     1      14.663  -3.180 -16.220  1.00  0.00     0.030 A 
HETATM   26  C   UNL     1      14.826  -2.787 -14.892  1.00  0.00     0.003 A 
HETATM   27  C   UNL     1      15.849  -1.911 -14.559  1.00  0.00     0.018 A 
HETATM   28  C   UNL     1      16.743  -1.485 -15.545  1.00  0.00     0.041 A 
HETATM   29  C   UNL     1      16.579  -1.906 -16.881  1.00  0.00     0.048 A 
BRANCH  28  30
HETATM   30  C   UNL     1      17.742  -0.448 -15.167  1.00  0.00     0.293 C 
HETATM   31  O   UNL     1      17.843   0.631 -15.729  1.00  0.00    -0.259 OA
BRANCH  30  32
HETATM   32  O   UNL     1      18.576  -0.913 -14.206  1.00  0.00    -0.310 OA
BRANCH  32  33
HETATM   33  C   UNL     1      19.830  -1.401 -14.703  1.00  0.00     0.263 C 
BRANCH  33  34
HETATM   34  C   UNL     1      20.009  -2.844 -14.234  1.00  0.00     0.183 C 
HETATM   35  O   UNL     1      20.940  -3.179 -13.499  1.00  0.00    -0.290 OA
BRANCH  34  36
HETATM   36  C   UNL     1      19.038  -3.891 -14.670  1.00  0.00     0.012 A 
HETATM   37  C   UNL     1      18.155  -4.539 -13.800  1.00  0.00     0.018 A 
HETATM   38  C   UNL     1      17.299  -5.538 -14.289  1.00  0.00     0.038 A 
HETATM   39  C   UNL     1      17.321  -5.881 -15.644  1.00  0.00     0.079 A 
HETATM   40  C   UNL     1      18.195  -5.243 -16.517  1.00  0.00     0.038 A 
HETATM   41  C   UNL     1      19.040  -4.245 -16.031  1.00  0.00     0.018 A 
BRANCH  39  42
HETATM   42  O   UNL     1      16.488  -6.958 -16.030  1.00  0.00    -0.273 OA
BRANCH  42  43
HETATM   43  C   UNL     1      16.948  -8.276 -16.140  1.00  0.00     0.322 C 
HETATM   44  O   UNL     1      17.739  -8.820 -15.376  1.00  0.00    -0.257 OA
BRANCH  43  45
HETATM   45  C   UNL     1      16.363  -8.913 -17.300  1.00  0.00     0.150 A 
HETATM   46  C   UNL     1      16.927  -9.255 -18.518  1.00  0.00     0.045 A 
HETATM   47  C   UNL     1      15.904  -9.853 -19.291  1.00  0.00     0.027 A 
HETATM   48  C   UNL     1      14.778  -9.848 -18.505  1.00  0.00     0.143 A 
HETATM   49  O   UNL     1      15.042  -9.280 -17.297  1.00  0.00    -0.317 OA
ENDBRANCH  43  45
ENDBRANCH  42  43
ENDBRANCH  39  42
ENDBRANCH  34  36
ENDBRANCH  33  34
ENDBRANCH  32  33
ENDBRANCH  30  32
ENDBRANCH  28  30
ENDBRANCH  19  24
TORSDOF 9
ENDMDL
