MODEL 1
REMARK VINA RESULT:      -6.8      0.000      0.000
REMARK  5 active torsions:
REMARK  status: ('A' for Active; 'I' for Inactive)
REMARK    1  A    between atoms: C_2  and  O_3 
REMARK    2  A    between atoms: O_3  and  C_4 
REMARK    3  A    between atoms: C_4  and  C_6 
REMARK    4  A    between atoms: C_12  and  C_13 
REMARK    5  A    between atoms: C_16  and  N_19 
ROOT
HETATM    1  C   UNL     1      14.297  -1.889 -14.042  1.00  0.00     0.034 C 
HETATM    2  C   UNL     1      14.754  -0.671 -14.825  1.00  0.00     0.174 C 
ENDROOT
BRANCH   2   3
HETATM    3  O   UNL     1      13.721  -0.381 -15.775  1.00  0.00    -0.318 OA
BRANCH   3   4
HETATM    4  C   UNL     1      14.139   0.052 -16.989  1.00  0.00     0.292 C 
HETATM    5  O   UNL     1      14.861   1.014 -17.195  1.00  0.00    -0.259 OA
BRANCH   4   6
HETATM    6  C   UNL     1      13.690  -0.913 -18.025  1.00  0.00     0.052 C 
HETATM    7  C   UNL     1      12.394  -0.948 -18.450  1.00  0.00     0.019 C 
HETATM    8  C   UNL     1      11.263  -0.076 -17.955  1.00  0.00     0.069 C 
HETATM    9  N   UNL     1      12.021  -1.828 -19.471  1.00  0.00    -0.358 N 
HETATM   10  C   UNL     1      12.957  -2.490 -20.205  1.00  0.00     0.055 A 
HETATM   11  HN  UNL     1      11.093  -1.725 -19.869  1.00  0.00     0.166 HD
HETATM   12  C   UNL     1      14.251  -2.513 -19.870  1.00  0.00     0.034 A 
HETATM   13  C   UNL     1      12.738  -3.196 -21.448  1.00  0.00     0.005 A 
HETATM   14  C   UNL     1      14.768  -1.850 -18.630  1.00  0.00     0.099 C 
HETATM   15  C   UNL     1      14.988  -3.190 -20.945  1.00  0.00     0.192 A 
HETATM   16  O   UNL     1      16.191  -3.324 -21.034  1.00  0.00    -0.287 OA
HETATM   17  C   UNL     1      13.977  -3.632 -21.914  1.00  0.00     0.027 A 
HETATM   18  C   UNL     1      14.129  -4.343 -23.089  1.00  0.00     0.016 A 
HETATM   19  C   UNL     1      12.970  -4.632 -23.813  1.00  0.00     0.001 A 
HETATM   20  C   UNL     1      11.709  -4.203 -23.352  1.00  0.00     0.001 A 
HETATM   21  C   UNL     1      11.587  -3.476 -22.163  1.00  0.00     0.014 A 
BRANCH  14  22
HETATM   22  C   UNL     1      15.234  -2.917 -17.631  1.00  0.00    -0.045 A 
HETATM   23  C   UNL     1      14.317  -3.862 -17.136  1.00  0.00     0.011 A 
HETATM   24  C   UNL     1      14.697  -4.782 -16.152  1.00  0.00     0.036 A 
HETATM   25  C   UNL     1      16.005  -4.761 -15.655  1.00  0.00     0.102 A 
HETATM   26  C   UNL     1      16.935  -3.838 -16.139  1.00  0.00     0.036 A 
HETATM   27  C   UNL     1      16.545  -2.918 -17.115  1.00  0.00     0.011 A 
BRANCH  25  28
HETATM   28  N   UNL     1      16.403  -5.696 -14.596  1.00  0.00    -0.116 N 
HETATM   29  O   UNL     1      15.953  -5.505 -13.457  1.00  0.00    -0.532 OA
HETATM   30  O   UNL     1      17.169  -6.624 -14.900  1.00  0.00    -0.532 OA
ENDBRANCH  25  28
ENDBRANCH  14  22
ENDBRANCH   4   6
ENDBRANCH   3   4
ENDBRANCH   2   3
TORSDOF 5
ENDMDL
MODEL 2
REMARK VINA RESULT:      -6.8      0.451      1.026
REMARK  5 active torsions:
REMARK  status: ('A' for Active; 'I' for Inactive)
REMARK    1  A    between atoms: C_2  and  O_3 
REMARK    2  A    between atoms: O_3  and  C_4 
REMARK    3  A    between atoms: C_4  and  C_6 
REMARK    4  A    between atoms: C_12  and  C_13 
REMARK    5  A    between atoms: C_16  and  N_19 
ROOT
HETATM    1  C   UNL     1      14.170  -2.333 -14.047  1.00  0.00     0.034 C 
HETATM    2  C   UNL     1      14.664  -1.061 -14.711  1.00  0.00     0.174 C 
ENDROOT
BRANCH   2   3
HETATM    3  O   UNL     1      13.650  -0.663 -15.643  1.00  0.00    -0.318 OA
BRANCH   3   4
HETATM    4  C   UNL     1      14.093  -0.167 -16.824  1.00  0.00     0.292 C 
HETATM    5  O   UNL     1      14.819   0.803 -16.963  1.00  0.00    -0.259 OA
BRANCH   4   6
HETATM    6  C   UNL     1      13.666  -1.075 -17.917  1.00  0.00     0.052 C 
HETATM    7  C   UNL     1      12.378  -1.090 -18.368  1.00  0.00     0.019 C 
HETATM    8  C   UNL     1      11.236  -0.247 -17.849  1.00  0.00     0.069 C 
HETATM    9  N   UNL     1      12.027  -1.914 -19.442  1.00  0.00    -0.358 N 
HETATM   10  C   UNL     1      12.978  -2.534 -20.193  1.00  0.00     0.055 A 
HETATM   11  HN  UNL     1      11.106  -1.792 -19.852  1.00  0.00     0.166 HD
HETATM   12  C   UNL     1      14.266  -2.573 -19.836  1.00  0.00     0.034 A 
HETATM   13  C   UNL     1      12.785  -3.173 -21.477  1.00  0.00     0.005 A 
HETATM   14  C   UNL     1      14.758  -1.977 -18.552  1.00  0.00     0.099 C 
HETATM   15  C   UNL     1      15.025  -3.190 -20.931  1.00  0.00     0.192 A 
HETATM   16  O   UNL     1      16.229  -3.317 -21.005  1.00  0.00    -0.287 OA
HETATM   17  C   UNL     1      14.033  -3.581 -21.942  1.00  0.00     0.027 A 
HETATM   18  C   UNL     1      14.209  -4.227 -23.150  1.00  0.00     0.016 A 
HETATM   19  C   UNL     1      13.064  -4.479 -23.910  1.00  0.00     0.001 A 
HETATM   20  C   UNL     1      11.794  -4.077 -23.451  1.00  0.00     0.001 A 
HETATM   21  C   UNL     1      11.647  -3.416 -22.227  1.00  0.00     0.014 A 
BRANCH  14  22
HETATM   22  C   UNL     1      15.208  -3.096 -17.604  1.00  0.00    -0.045 A 
HETATM   23  C   UNL     1      16.543  -3.143 -17.159  1.00  0.00     0.011 A 
HETATM   24  C   UNL     1      16.999  -4.207 -16.374  1.00  0.00     0.036 A 
HETATM   25  C   UNL     1      16.118  -5.237 -16.026  1.00  0.00     0.102 A 
HETATM   26  C   UNL     1      14.787  -5.206 -16.449  1.00  0.00     0.036 A 
HETATM   27  C   UNL     1      14.342  -4.144 -17.239  1.00  0.00     0.011 A 
BRANCH  25  28
HETATM   28  N   UNL     1      16.596  -6.376 -15.235  1.00  0.00    -0.116 N 
HETATM   29  O   UNL     1      17.107  -6.139 -14.131  1.00  0.00    -0.532 OA
HETATM   30  O   UNL     1      16.465  -7.513 -15.718  1.00  0.00    -0.532 OA
ENDBRANCH  25  28
ENDBRANCH  14  22
ENDBRANCH   4   6
ENDBRANCH   3   4
ENDBRANCH   2   3
TORSDOF 5
ENDMDL
MODEL 3
REMARK VINA RESULT:      -6.5      5.273      9.371
REMARK  5 active torsions:
REMARK  status: ('A' for Active; 'I' for Inactive)
REMARK    1  A    between atoms: C_2  and  O_3 
REMARK    2  A    between atoms: O_3  and  C_4 
REMARK    3  A    between atoms: C_4  and  C_6 
REMARK    4  A    between atoms: C_12  and  C_13 
REMARK    5  A    between atoms: C_16  and  N_19 
ROOT
HETATM    1  C   UNL     1      17.120  -8.836 -28.007  1.00  0.00     0.034 C 
HETATM    2  C   UNL     1      16.109  -7.705 -27.973  1.00  0.00     0.174 C 
ENDROOT
BRANCH   2   3
HETATM    3  O   UNL     1      16.019  -7.275 -26.608  1.00  0.00    -0.318 OA
BRANCH   3   4
HETATM    4  C   UNL     1      14.765  -7.166 -26.104  1.00  0.00     0.292 C 
HETATM    5  O   UNL     1      13.797  -6.713 -26.692  1.00  0.00    -0.259 OA
BRANCH   4   6
HETATM    6  C   UNL     1      14.726  -7.812 -24.768  1.00  0.00     0.052 C 
HETATM    7  C   UNL     1      14.478  -9.146 -24.630  1.00  0.00     0.019 C 
HETATM    8  C   UNL     1      14.203 -10.128 -25.745  1.00  0.00     0.069 C 
HETATM    9  N   UNL     1      14.510  -9.731 -23.360  1.00  0.00    -0.358 N 
HETATM   10  C   UNL     1      14.999  -9.053 -22.285  1.00  0.00     0.055 A 
HETATM   11  HN  UNL     1      14.475 -10.744 -23.304  1.00  0.00     0.166 HD
HETATM   12  C   UNL     1      15.273  -7.745 -22.324  1.00  0.00     0.034 A 
HETATM   13  C   UNL     1      15.350  -9.612 -20.998  1.00  0.00     0.005 A 
HETATM   14  C   UNL     1      15.017  -6.910 -23.540  1.00  0.00     0.099 C 
HETATM   15  C   UNL     1      15.908  -7.376 -21.052  1.00  0.00     0.192 A 
HETATM   16  O   UNL     1      16.374  -6.295 -20.755  1.00  0.00    -0.287 OA
HETATM   17  C   UNL     1      15.910  -8.593 -20.230  1.00  0.00     0.027 A 
HETATM   18  C   UNL     1      16.360  -8.788 -18.939  1.00  0.00     0.016 A 
HETATM   19  C   UNL     1      16.223 -10.072 -18.404  1.00  0.00     0.001 A 
HETATM   20  C   UNL     1      15.655 -11.111 -19.166  1.00  0.00     0.001 A 
HETATM   21  C   UNL     1      15.216 -10.886 -20.475  1.00  0.00     0.014 A 
BRANCH  14  22
HETATM   22  C   UNL     1      13.874  -5.926 -23.259  1.00  0.00    -0.045 A 
HETATM   23  C   UNL     1      14.165  -4.593 -22.914  1.00  0.00     0.011 A 
HETATM   24  C   UNL     1      13.143  -3.706 -22.559  1.00  0.00     0.036 A 
HETATM   25  C   UNL     1      11.816  -4.149 -22.547  1.00  0.00     0.102 A 
HETATM   26  C   UNL     1      11.503  -5.466 -22.895  1.00  0.00     0.036 A 
HETATM   27  C   UNL     1      12.530  -6.347 -23.240  1.00  0.00     0.011 A 
BRANCH  25  28
HETATM   28  N   UNL     1      10.741  -3.238 -22.139  1.00  0.00    -0.116 N 
HETATM   29  O   UNL     1       9.643  -3.349 -22.703  1.00  0.00    -0.532 OA
HETATM   30  O   UNL     1      10.993  -2.404 -21.253  1.00  0.00    -0.532 OA
ENDBRANCH  25  28
ENDBRANCH  14  22
ENDBRANCH   4   6
ENDBRANCH   3   4
ENDBRANCH   2   3
TORSDOF 5
ENDMDL
MODEL 4
REMARK VINA RESULT:      -6.4      2.847      4.929
REMARK  5 active torsions:
REMARK  status: ('A' for Active; 'I' for Inactive)
REMARK    1  A    between atoms: C_2  and  O_3 
REMARK    2  A    between atoms: O_3  and  C_4 
REMARK    3  A    between atoms: C_4  and  C_6 
REMARK    4  A    between atoms: C_12  and  C_13 
REMARK    5  A    between atoms: C_16  and  N_19 
ROOT
HETATM    1  C   UNL     1      17.635  -0.401 -15.412  1.00  0.00     0.034 C 
HETATM    2  C   UNL     1      16.455  -0.664 -14.493  1.00  0.00     0.174 C 
ENDROOT
BRANCH   2   3
HETATM    3  O   UNL     1      15.951  -1.962 -14.834  1.00  0.00    -0.318 OA
BRANCH   3   4
HETATM    4  C   UNL     1      14.615  -2.136 -14.681  1.00  0.00     0.292 C 
HETATM    5  O   UNL     1      13.962  -1.823 -13.699  1.00  0.00    -0.259 OA
BRANCH   4   6
HETATM    6  C   UNL     1      14.048  -2.644 -15.955  1.00  0.00     0.052 C 
HETATM    7  C   UNL     1      14.001  -3.980 -16.230  1.00  0.00     0.019 C 
HETATM    8  C   UNL     1      14.504  -5.096 -15.344  1.00  0.00     0.069 C 
HETATM    9  N   UNL     1      13.402  -4.425 -17.413  1.00  0.00    -0.358 N 
HETATM   10  C   UNL     1      12.669  -3.583 -18.191  1.00  0.00     0.055 A 
HETATM   11  HN  UNL     1      13.246  -5.423 -17.518  1.00  0.00     0.166 HD
HETATM   12  C   UNL     1      12.650  -2.259 -17.999  1.00  0.00     0.034 A 
HETATM   13  C   UNL     1      11.777  -3.956 -19.266  1.00  0.00     0.005 A 
HETATM   14  C   UNL     1      13.475  -1.593 -16.941  1.00  0.00     0.099 C 
HETATM   15  C   UNL     1      11.658  -1.681 -18.915  1.00  0.00     0.192 A 
HETATM   16  O   UNL     1      11.302  -0.522 -18.968  1.00  0.00    -0.287 OA
HETATM   17  C   UNL     1      11.149  -2.798 -19.721  1.00  0.00     0.027 A 
HETATM   18  C   UNL     1      10.225  -2.800 -20.748  1.00  0.00     0.016 A 
HETATM   19  C   UNL     1       9.938  -4.030 -21.345  1.00  0.00     0.001 A 
HETATM   20  C   UNL     1      10.569  -5.208 -20.900  1.00  0.00     0.001 A 
HETATM   21  C   UNL     1      11.494  -5.178 -19.851  1.00  0.00     0.014 A 
BRANCH  14  22
HETATM   22  C   UNL     1      14.577  -0.754 -17.599  1.00  0.00    -0.045 A 
HETATM   23  C   UNL     1      14.555   0.648 -17.484  1.00  0.00     0.011 A 
HETATM   24  C   UNL     1      15.494   1.438 -18.156  1.00  0.00     0.036 A 
HETATM   25  C   UNL     1      16.467   0.825 -18.954  1.00  0.00     0.102 A 
HETATM   26  C   UNL     1      16.513  -0.566 -19.076  1.00  0.00     0.036 A 
HETATM   27  C   UNL     1      15.567  -1.345 -18.407  1.00  0.00     0.011 A 
BRANCH  25  28
HETATM   28  N   UNL     1      17.432   1.646 -19.694  1.00  0.00    -0.116 N 
HETATM   29  O   UNL     1      18.627   1.562 -19.374  1.00  0.00    -0.532 OA
HETATM   30  O   UNL     1      16.998   2.380 -20.596  1.00  0.00    -0.532 OA
ENDBRANCH  25  28
ENDBRANCH  14  22
ENDBRANCH   4   6
ENDBRANCH   3   4
ENDBRANCH   2   3
TORSDOF 5
ENDMDL
MODEL 5
REMARK VINA RESULT:      -6.4      2.797      4.925
REMARK  5 active torsions:
REMARK  status: ('A' for Active; 'I' for Inactive)
REMARK    1  A    between atoms: C_2  and  O_3 
REMARK    2  A    between atoms: O_3  and  C_4 
REMARK    3  A    between atoms: C_4  and  C_6 
REMARK    4  A    between atoms: C_12  and  C_13 
REMARK    5  A    between atoms: C_16  and  N_19 
ROOT
HETATM    1  C   UNL     1      12.642  -4.313 -12.980  1.00  0.00     0.034 C 
HETATM    2  C   UNL     1      13.864  -3.421 -12.857  1.00  0.00     0.174 C 
ENDROOT
BRANCH   2   3
HETATM    3  O   UNL     1      13.795  -2.478 -13.934  1.00  0.00    -0.318 OA
BRANCH   3   4
HETATM    4  C   UNL     1      14.773  -2.575 -14.867  1.00  0.00     0.292 C 
HETATM    5  O   UNL     1      15.970  -2.459 -14.661  1.00  0.00    -0.259 OA
BRANCH   4   6
HETATM    6  C   UNL     1      14.167  -2.978 -16.160  1.00  0.00     0.052 C 
HETATM    7  C   UNL     1      14.145  -4.283 -16.560  1.00  0.00     0.019 C 
HETATM    8  C   UNL     1      14.716  -5.462 -15.805  1.00  0.00     0.069 C 
HETATM    9  N   UNL     1      13.510  -4.634 -17.755  1.00  0.00    -0.358 N 
HETATM   10  C   UNL     1      12.722  -3.745 -18.420  1.00  0.00     0.055 A 
HETATM   11  HN  UNL     1      13.377  -5.621 -17.949  1.00  0.00     0.166 HD
HETATM   12  C   UNL     1      12.673  -2.448 -18.102  1.00  0.00     0.034 A 
HETATM   13  C   UNL     1      11.795  -4.044 -19.490  1.00  0.00     0.005 A 
HETATM   14  C   UNL     1      13.523  -1.857 -17.018  1.00  0.00     0.099 C 
HETATM   15  C   UNL     1      11.628  -1.817 -18.918  1.00  0.00     0.192 A 
HETATM   16  O   UNL     1      11.237  -0.670 -18.847  1.00  0.00    -0.287 OA
HETATM   17  C   UNL     1      11.116  -2.869 -19.806  1.00  0.00     0.027 A 
HETATM   18  C   UNL     1      10.151  -2.803 -20.791  1.00  0.00     0.016 A 
HETATM   19  C   UNL     1       9.873  -3.980 -21.492  1.00  0.00     0.001 A 
HETATM   20  C   UNL     1      10.555  -5.174 -21.187  1.00  0.00     0.001 A 
HETATM   21  C   UNL     1      11.522  -5.214 -20.177  1.00  0.00     0.014 A 
BRANCH  14  22
HETATM   22  C   UNL     1      14.573  -0.926 -17.636  1.00  0.00    -0.045 A 
HETATM   23  C   UNL     1      14.425   0.469 -17.525  1.00  0.00     0.011 A 
HETATM   24  C   UNL     1      15.318   1.338 -18.163  1.00  0.00     0.036 A 
HETATM   25  C   UNL     1      16.369   0.812 -18.923  1.00  0.00     0.102 A 
HETATM   26  C   UNL     1      16.540  -0.569 -19.040  1.00  0.00     0.036 A 
HETATM   27  C   UNL     1      15.640  -1.428 -18.405  1.00  0.00     0.011 A 
BRANCH  25  28
HETATM   28  N   UNL     1      17.287   1.714 -19.627  1.00  0.00    -0.116 N 
HETATM   29  O   UNL     1      18.470   1.740 -19.257  1.00  0.00    -0.532 OA
HETATM   30  O   UNL     1      16.827   2.403 -20.552  1.00  0.00    -0.532 OA
ENDBRANCH  25  28
ENDBRANCH  14  22
ENDBRANCH   4   6
ENDBRANCH   3   4
ENDBRANCH   2   3
TORSDOF 5
ENDMDL
MODEL 6
REMARK VINA RESULT:      -6.4      4.098      7.583
REMARK  5 active torsions:
REMARK  status: ('A' for Active; 'I' for Inactive)
REMARK    1  A    between atoms: C_2  and  O_3 
REMARK    2  A    between atoms: O_3  and  C_4 
REMARK    3  A    between atoms: C_4  and  C_6 
REMARK    4  A    between atoms: C_12  and  C_13 
REMARK    5  A    between atoms: C_16  and  N_19 
ROOT
HETATM    1  C   UNL     1       5.907  -6.308 -19.754  1.00  0.00     0.034 C 
HETATM    2  C   UNL     1       6.750  -7.255 -20.588  1.00  0.00     0.174 C 
ENDROOT
BRANCH   2   3
HETATM    3  O   UNL     1       8.099  -6.778 -20.514  1.00  0.00    -0.318 OA
BRANCH   3   4
HETATM    4  C   UNL     1       8.540  -6.082 -21.591  1.00  0.00     0.292 C 
HETATM    5  O   UNL     1       8.233  -6.294 -22.753  1.00  0.00    -0.259 OA
BRANCH   4   6
HETATM    6  C   UNL     1       9.353  -4.932 -21.121  1.00  0.00     0.052 C 
HETATM    7  C   UNL     1       8.824  -3.678 -21.028  1.00  0.00     0.019 C 
HETATM    8  C   UNL     1       7.412  -3.271 -21.381  1.00  0.00     0.069 C 
HETATM    9  N   UNL     1       9.602  -2.631 -20.522  1.00  0.00    -0.358 N 
HETATM   10  C   UNL     1      10.796  -2.872 -19.914  1.00  0.00     0.055 A 
HETATM   11  HN  UNL     1       9.138  -1.751 -20.322  1.00  0.00     0.166 HD
HETATM   12  C   UNL     1      11.393  -4.068 -19.949  1.00  0.00     0.034 A 
HETATM   13  C   UNL     1      11.559  -1.943 -19.110  1.00  0.00     0.005 A 
HETATM   14  C   UNL     1      10.818  -5.227 -20.704  1.00  0.00     0.099 C 
HETATM   15  C   UNL     1      12.578  -4.011 -19.083  1.00  0.00     0.192 A 
HETATM   16  O   UNL     1      13.319  -4.929 -18.798  1.00  0.00    -0.287 OA
HETATM   17  C   UNL     1      12.656  -2.629 -18.593  1.00  0.00     0.027 A 
HETATM   18  C   UNL     1      13.595  -2.033 -17.774  1.00  0.00     0.016 A 
HETATM   19  C   UNL     1      13.415  -0.679 -17.479  1.00  0.00     0.001 A 
HETATM   20  C   UNL     1      12.313   0.029 -17.998  1.00  0.00     0.001 A 
HETATM   21  C   UNL     1      11.373  -0.603 -18.818  1.00  0.00     0.014 A 
BRANCH  14  22
HETATM   22  C   UNL     1      11.710  -5.552 -21.909  1.00  0.00    -0.045 A 
HETATM   23  C   UNL     1      12.486  -6.725 -21.911  1.00  0.00     0.011 A 
HETATM   24  C   UNL     1      13.379  -6.991 -22.955  1.00  0.00     0.036 A 
HETATM   25  C   UNL     1      13.502  -6.079 -24.010  1.00  0.00     0.102 A 
HETATM   26  C   UNL     1      12.734  -4.912 -24.032  1.00  0.00     0.036 A 
HETATM   27  C   UNL     1      11.851  -4.651 -22.982  1.00  0.00     0.011 A 
BRANCH  25  28
HETATM   28  N   UNL     1      14.463  -6.331 -25.089  1.00  0.00    -0.116 N 
HETATM   29  O   UNL     1      14.418  -5.596 -26.086  1.00  0.00    -0.532 OA
HETATM   30  O   UNL     1      15.265  -7.267 -24.945  1.00  0.00    -0.532 OA
ENDBRANCH  25  28
ENDBRANCH  14  22
ENDBRANCH   4   6
ENDBRANCH   3   4
ENDBRANCH   2   3
TORSDOF 5
ENDMDL
MODEL 7
REMARK VINA RESULT:      -6.3      3.019      4.449
REMARK  5 active torsions:
REMARK  status: ('A' for Active; 'I' for Inactive)
REMARK    1  A    between atoms: C_2  and  O_3 
REMARK    2  A    between atoms: O_3  and  C_4 
REMARK    3  A    between atoms: C_4  and  C_6 
REMARK    4  A    between atoms: C_12  and  C_13 
REMARK    5  A    between atoms: C_16  and  N_19 
ROOT
HETATM    1  C   UNL     1      20.401  -1.215 -22.242  1.00  0.00     0.034 C 
HETATM    2  C   UNL     1      20.145  -1.809 -20.870  1.00  0.00     0.174 C 
ENDROOT
BRANCH   2   3
HETATM    3  O   UNL     1      18.726  -1.786 -20.670  1.00  0.00    -0.318 OA
BRANCH   3   4
HETATM    4  C   UNL     1      18.267  -2.489 -19.606  1.00  0.00     0.292 C 
HETATM    5  O   UNL     1      18.926  -2.830 -18.637  1.00  0.00    -0.259 OA
BRANCH   4   6
HETATM    6  C   UNL     1      16.799  -2.664 -19.742  1.00  0.00     0.052 C 
HETATM    7  C   UNL     1      15.924  -1.741 -19.246  1.00  0.00     0.019 C 
HETATM    8  C   UNL     1      16.281  -0.472 -18.507  1.00  0.00     0.069 C 
HETATM    9  N   UNL     1      14.550  -1.908 -19.447  1.00  0.00    -0.358 N 
HETATM   10  C   UNL     1      14.075  -2.846 -20.312  1.00  0.00     0.055 A 
HETATM   11  HN  UNL     1      13.939  -1.135 -19.204  1.00  0.00     0.166 HD
HETATM   12  C   UNL     1      14.854  -3.790 -20.850  1.00  0.00     0.034 A 
HETATM   13  C   UNL     1      12.726  -2.942 -20.825  1.00  0.00     0.005 A 
HETATM   14  C   UNL     1      16.306  -3.921 -20.505  1.00  0.00     0.099 C 
HETATM   15  C   UNL     1      14.056  -4.534 -21.833  1.00  0.00     0.192 A 
HETATM   16  O   UNL     1      14.445  -5.406 -22.581  1.00  0.00    -0.287 OA
HETATM   17  C   UNL     1      12.699  -3.975 -21.761  1.00  0.00     0.027 A 
HETATM   18  C   UNL     1      11.556  -4.335 -22.448  1.00  0.00     0.016 A 
HETATM   19  C   UNL     1      10.390  -3.621 -22.162  1.00  0.00     0.001 A 
HETATM   20  C   UNL     1      10.400  -2.578 -21.216  1.00  0.00     0.001 A 
HETATM   21  C   UNL     1      11.575  -2.229 -20.541  1.00  0.00     0.014 A 
BRANCH  14  22
HETATM   22  C   UNL     1      16.531  -5.210 -19.705  1.00  0.00    -0.045 A 
HETATM   23  C   UNL     1      17.060  -6.347 -20.344  1.00  0.00     0.011 A 
HETATM   24  C   UNL     1      17.183  -7.561 -19.658  1.00  0.00     0.036 A 
HETATM   25  C   UNL     1      16.774  -7.646 -18.323  1.00  0.00     0.102 A 
HETATM   26  C   UNL     1      16.254  -6.527 -17.667  1.00  0.00     0.036 A 
HETATM   27  C   UNL     1      16.128  -5.321 -18.361  1.00  0.00     0.011 A 
BRANCH  25  28
HETATM   28  N   UNL     1      16.863  -8.923 -17.607  1.00  0.00    -0.116 N 
HETATM   29  O   UNL     1      16.672  -9.963 -18.255  1.00  0.00    -0.532 OA
HETATM   30  O   UNL     1      17.121  -8.891 -16.394  1.00  0.00    -0.532 OA
ENDBRANCH  25  28
ENDBRANCH  14  22
ENDBRANCH   4   6
ENDBRANCH   3   4
ENDBRANCH   2   3
TORSDOF 5
ENDMDL
MODEL 8
REMARK VINA RESULT:      -6.3      3.299      7.812
REMARK  5 active torsions:
REMARK  status: ('A' for Active; 'I' for Inactive)
REMARK    1  A    between atoms: C_2  and  O_3 
REMARK    2  A    between atoms: O_3  and  C_4 
REMARK    3  A    between atoms: C_4  and  C_6 
REMARK    4  A    between atoms: C_12  and  C_13 
REMARK    5  A    between atoms: C_16  and  N_19 
ROOT
HETATM    1  C   UNL     1      13.918  -7.695 -23.048  1.00  0.00     0.034 C 
HETATM    2  C   UNL     1      15.112  -8.380 -22.408  1.00  0.00     0.174 C 
ENDROOT
BRANCH   2   3
HETATM    3  O   UNL     1      14.810  -8.514 -21.014  1.00  0.00    -0.318 OA
BRANCH   3   4
HETATM    4  C   UNL     1      15.753  -8.050 -20.157  1.00  0.00     0.292 C 
HETATM    5  O   UNL     1      16.961  -8.129 -20.314  1.00  0.00    -0.259 OA
BRANCH   4   6
HETATM    6  C   UNL     1      15.083  -7.308 -19.060  1.00  0.00     0.052 C 
HETATM    7  C   UNL     1      14.430  -7.960 -18.055  1.00  0.00     0.019 C 
HETATM    8  C   UNL     1      14.273  -9.456 -17.909  1.00  0.00     0.069 C 
HETATM    9  N   UNL     1      13.863  -7.229 -17.006  1.00  0.00    -0.358 N 
HETATM   10  C   UNL     1      14.137  -5.906 -16.842  1.00  0.00     0.055 A 
HETATM   11  HN  UNL     1      13.520  -7.744 -16.201  1.00  0.00     0.166 HD
HETATM   12  C   UNL     1      14.773  -5.182 -17.769  1.00  0.00     0.034 A 
HETATM   13  C   UNL     1      13.859  -5.105 -15.670  1.00  0.00     0.005 A 
HETATM   14  C   UNL     1      15.193  -5.761 -19.086  1.00  0.00     0.099 C 
HETATM   15  C   UNL     1      15.023  -3.847 -17.212  1.00  0.00     0.192 A 
HETATM   16  O   UNL     1      15.653  -2.946 -17.728  1.00  0.00    -0.287 OA
HETATM   17  C   UNL     1      14.398  -3.837 -15.883  1.00  0.00     0.027 A 
HETATM   18  C   UNL     1      14.312  -2.820 -14.953  1.00  0.00     0.016 A 
HETATM   19  C   UNL     1      13.639  -3.101 -13.762  1.00  0.00     0.001 A 
HETATM   20  C   UNL     1      13.085  -4.376 -13.534  1.00  0.00     0.001 A 
HETATM   21  C   UNL     1      13.195  -5.391 -14.490  1.00  0.00     0.014 A 
BRANCH  14  22
HETATM   22  C   UNL     1      14.358  -5.139 -20.212  1.00  0.00    -0.045 A 
HETATM   23  C   UNL     1      12.968  -5.357 -20.256  1.00  0.00     0.011 A 
HETATM   24  C   UNL     1      12.202  -4.881 -21.327  1.00  0.00     0.036 A 
HETATM   25  C   UNL     1      12.826  -4.181 -22.366  1.00  0.00     0.102 A 
HETATM   26  C   UNL     1      14.203  -3.946 -22.338  1.00  0.00     0.036 A 
HETATM   27  C   UNL     1      14.961  -4.431 -21.270  1.00  0.00     0.011 A 
BRANCH  25  28
HETATM   28  N   UNL     1      12.038  -3.713 -23.511  1.00  0.00    -0.116 N 
HETATM   29  O   UNL     1      12.430  -4.018 -24.646  1.00  0.00    -0.532 OA
HETATM   30  O   UNL     1      11.024  -3.034 -23.278  1.00  0.00    -0.532 OA
ENDBRANCH  25  28
ENDBRANCH  14  22
ENDBRANCH   4   6
ENDBRANCH   3   4
ENDBRANCH   2   3
TORSDOF 5
ENDMDL
MODEL 9
REMARK VINA RESULT:      -6.3      2.779      4.577
REMARK  5 active torsions:
REMARK  status: ('A' for Active; 'I' for Inactive)
REMARK    1  A    between atoms: C_2  and  O_3 
REMARK    2  A    between atoms: O_3  and  C_4 
REMARK    3  A    between atoms: C_4  and  C_6 
REMARK    4  A    between atoms: C_12  and  C_13 
REMARK    5  A    between atoms: C_16  and  N_19 
ROOT
HETATM    1  C   UNL     1      12.614  -4.070 -12.729  1.00  0.00     0.034 C 
HETATM    2  C   UNL     1      13.875  -3.314 -13.107  1.00  0.00     0.174 C 
ENDROOT
BRANCH   2   3
HETATM    3  O   UNL     1      13.640  -2.745 -14.401  1.00  0.00    -0.318 OA
BRANCH   3   4
HETATM    4  C   UNL     1      14.529  -3.083 -15.366  1.00  0.00     0.292 C 
HETATM    5  O   UNL     1      15.742  -3.127 -15.235  1.00  0.00    -0.259 OA
BRANCH   4   6
HETATM    6  C   UNL     1      13.786  -3.523 -16.573  1.00  0.00     0.052 C 
HETATM    7  C   UNL     1      13.413  -4.825 -16.743  1.00  0.00     0.019 C 
HETATM    8  C   UNL     1      13.692  -5.969 -15.796  1.00  0.00     0.069 C 
HETATM    9  N   UNL     1      12.660  -5.191 -17.863  1.00  0.00    -0.358 N 
HETATM   10  C   UNL     1      12.100  -4.251 -18.672  1.00  0.00     0.055 A 
HETATM   11  HN  UNL     1      12.269  -6.128 -17.885  1.00  0.00     0.166 HD
HETATM   12  C   UNL     1      12.401  -2.952 -18.581  1.00  0.00     0.034 A 
HETATM   13  C   UNL     1      11.084  -4.472 -19.678  1.00  0.00     0.005 A 
HETATM   14  C   UNL     1      13.418  -2.432 -17.612  1.00  0.00     0.099 C 
HETATM   15  C   UNL     1      11.520  -2.215 -19.497  1.00  0.00     0.192 A 
HETATM   16  O   UNL     1      11.442  -1.011 -19.624  1.00  0.00    -0.287 OA
HETATM   17  C   UNL     1      10.719  -3.230 -20.194  1.00  0.00     0.027 A 
HETATM   18  C   UNL     1       9.763  -3.079 -21.179  1.00  0.00     0.016 A 
HETATM   19  C   UNL     1       9.163  -4.242 -21.668  1.00  0.00     0.001 A 
HETATM   20  C   UNL     1       9.526  -5.505 -21.161  1.00  0.00     0.001 A 
HETATM   21  C   UNL     1      10.491  -5.627 -20.156  1.00  0.00     0.014 A 
BRANCH  14  22
HETATM   22  C   UNL     1      14.646  -1.923 -18.377  1.00  0.00    -0.045 A 
HETATM   23  C   UNL     1      15.335  -2.784 -19.251  1.00  0.00     0.011 A 
HETATM   24  C   UNL     1      16.513  -2.371 -19.883  1.00  0.00     0.036 A 
HETATM   25  C   UNL     1      17.012  -1.086 -19.643  1.00  0.00     0.102 A 
HETATM   26  C   UNL     1      16.340  -0.211 -18.787  1.00  0.00     0.036 A 
HETATM   27  C   UNL     1      15.169  -0.634 -18.153  1.00  0.00     0.011 A 
BRANCH  25  28
HETATM   28  N   UNL     1      18.267  -0.658 -20.272  1.00  0.00    -0.116 N 
HETATM   29  O   UNL     1      18.847  -1.463 -21.014  1.00  0.00    -0.532 OA
HETATM   30  O   UNL     1      18.679   0.487 -20.022  1.00  0.00    -0.532 OA
ENDBRANCH  25  28
ENDBRANCH  14  22
ENDBRANCH   4   6
ENDBRANCH   3   4
ENDBRANCH   2   3
TORSDOF 5
ENDMDL
