MODEL 1
REMARK VINA RESULT:      -6.1      0.000      0.000
REMARK  2 active torsions:
REMARK  status: ('A' for Active; 'I' for Inactive)
REMARK    1  A    between atoms: C_13  and  S_15 
REMARK    2  A    between atoms: S_15  and  N_18 
ROOT
HETATM    1  C   UNL     1      18.582   3.760 -20.128  1.00  0.00     0.048 C 
HETATM    2  C   UNL     1      19.621   2.770 -20.568  1.00  0.00    -0.060 A 
HETATM    3  C   UNL     1      19.301   1.414 -20.721  1.00  0.00     0.021 A 
HETATM    4  C   UNL     1      20.256   0.470 -21.139  1.00  0.00    -0.001 A 
HETATM    5  C   UNL     1      19.946  -0.977 -21.264  1.00  0.00    -0.044 A 
HETATM    6  C   UNL     1      18.604  -1.564 -20.928  1.00  0.00     0.049 C 
HETATM    7  C   UNL     1      20.914  -1.812 -21.679  1.00  0.00     0.082 A 
HETATM    8  C   UNL     1      22.275  -1.353 -22.009  1.00  0.00     0.246 A 
HETATM    9  O   UNL     1      23.130  -2.150 -22.380  1.00  0.00    -0.268 OA
HETATM   10  N   UNL     1      22.513  -0.019 -21.873  1.00  0.00    -0.322 N 
HETATM   11  HN  UNL     1      23.472   0.274 -22.060  1.00  0.00     0.169 HD
HETATM   12  C   UNL     1      21.559   0.926 -21.448  1.00  0.00     0.069 A 
HETATM   13  C   UNL     1      21.875   2.290 -21.326  1.00  0.00     0.102 A 
HETATM   14  C   UNL     1      20.919   3.198 -20.854  1.00  0.00     0.034 A 
ENDROOT
BRANCH  13  15
HETATM   15  S   UNL     1      23.488   2.929 -21.723  1.00  0.00     0.245 S 
HETATM   16  O   UNL     1      23.535   4.324 -21.332  1.00  0.00    -0.206 OA
HETATM   17  O   UNL     1      24.478   1.991 -21.232  1.00  0.00    -0.206 OA
BRANCH  15  18
HETATM   18  N   UNL     1      23.520   2.857 -23.418  1.00  0.00    -0.206 NA
HETATM   19  C   UNL     1      23.433   4.128 -24.164  1.00  0.00     0.107 C 
HETATM   20  C   UNL     1      23.812   3.725 -25.578  1.00  0.00     0.017 C 
HETATM   21  C   UNL     1      24.900   2.685 -25.380  1.00  0.00     0.017 C 
HETATM   22  C   UNL     1      24.645   2.080 -24.001  1.00  0.00     0.107 C 
ENDBRANCH  15  18
ENDBRANCH  13  15
TORSDOF 2
ENDMDL
MODEL 2
REMARK VINA RESULT:      -6.1      8.160     10.663
REMARK  2 active torsions:
REMARK  status: ('A' for Active; 'I' for Inactive)
REMARK    1  A    between atoms: C_13  and  S_15 
REMARK    2  A    between atoms: S_15  and  N_18 
ROOT
HETATM    1  C   UNL     1       9.590  -3.265 -20.787  1.00  0.00     0.048 C 
HETATM    2  C   UNL     1      10.975  -2.863 -20.371  1.00  0.00    -0.060 A 
HETATM    3  C   UNL     1      12.102  -3.403 -21.008  1.00  0.00     0.021 A 
HETATM    4  C   UNL     1      13.408  -3.036 -20.640  1.00  0.00    -0.001 A 
HETATM    5  C   UNL     1      14.612  -3.630 -21.274  1.00  0.00    -0.044 A 
HETATM    6  C   UNL     1      14.545  -4.692 -22.336  1.00  0.00     0.049 C 
HETATM    7  C   UNL     1      15.826  -3.217 -20.870  1.00  0.00     0.082 A 
HETATM    8  C   UNL     1      16.013  -2.204 -19.817  1.00  0.00     0.246 A 
HETATM    9  O   UNL     1      17.139  -1.859 -19.475  1.00  0.00    -0.268 OA
HETATM   10  N   UNL     1      14.879  -1.693 -19.262  1.00  0.00    -0.322 N 
HETATM   11  HN  UNL     1      15.028  -1.028 -18.501  1.00  0.00     0.169 HD
HETATM   12  C   UNL     1      13.571  -2.065 -19.625  1.00  0.00     0.069 A 
HETATM   13  C   UNL     1      12.443  -1.497 -19.005  1.00  0.00     0.102 A 
HETATM   14  C   UNL     1      11.155  -1.924 -19.354  1.00  0.00     0.034 A 
ENDROOT
BRANCH  13  15
HETATM   15  S   UNL     1      12.581  -0.255 -17.740  1.00  0.00     0.245 S 
HETATM   16  O   UNL     1      13.152   0.938 -18.331  1.00  0.00    -0.206 OA
HETATM   17  O   UNL     1      11.321  -0.195 -17.026  1.00  0.00    -0.206 OA
BRANCH  15  18
HETATM   18  N   UNL     1      13.730  -0.916 -16.680  1.00  0.00    -0.206 NA
HETATM   19  C   UNL     1      14.723  -0.002 -16.082  1.00  0.00     0.107 C 
HETATM   20  C   UNL     1      15.348  -0.842 -14.982  1.00  0.00     0.017 C 
HETATM   21  C   UNL     1      14.182  -1.646 -14.433  1.00  0.00     0.017 C 
HETATM   22  C   UNL     1      13.176  -1.747 -15.578  1.00  0.00     0.107 C 
ENDBRANCH  15  18
ENDBRANCH  13  15
TORSDOF 2
ENDMDL
MODEL 3
REMARK VINA RESULT:      -6.0     11.160     12.533
REMARK  2 active torsions:
REMARK  status: ('A' for Active; 'I' for Inactive)
REMARK    1  A    between atoms: C_13  and  S_15 
REMARK    2  A    between atoms: S_15  and  N_18 
ROOT
HETATM    1  C   UNL     1      11.283  -5.941 -18.577  1.00  0.00     0.048 C 
HETATM    2  C   UNL     1      12.493  -6.266 -17.751  1.00  0.00    -0.060 A 
HETATM    3  C   UNL     1      13.448  -7.186 -18.208  1.00  0.00     0.021 A 
HETATM    4  C   UNL     1      14.593  -7.499 -17.455  1.00  0.00    -0.001 A 
HETATM    5  C   UNL     1      15.592  -8.503 -17.903  1.00  0.00    -0.044 A 
HETATM    6  C   UNL     1      15.456  -9.290 -19.176  1.00  0.00     0.049 C 
HETATM    7  C   UNL     1      16.664  -8.738 -17.127  1.00  0.00     0.082 A 
HETATM    8  C   UNL     1      16.887  -8.048 -15.845  1.00  0.00     0.246 A 
HETATM    9  O   UNL     1      17.878  -8.296 -15.166  1.00  0.00    -0.268 OA
HETATM   10  N   UNL     1      15.941  -7.142 -15.474  1.00  0.00    -0.322 N 
HETATM   11  HN  UNL     1      16.087  -6.708 -14.561  1.00  0.00     0.169 HD
HETATM   12  C   UNL     1      14.791  -6.831 -16.224  1.00  0.00     0.069 A 
HETATM   13  C   UNL     1      13.852  -5.885 -15.777  1.00  0.00     0.102 A 
HETATM   14  C   UNL     1      12.692  -5.634 -16.523  1.00  0.00     0.034 A 
ENDROOT
BRANCH  13  15
HETATM   15  S   UNL     1      14.055  -4.994 -14.251  1.00  0.00     0.245 S 
HETATM   16  O   UNL     1      12.746  -4.782 -13.668  1.00  0.00    -0.206 OA
HETATM   17  O   UNL     1      15.108  -5.636 -13.490  1.00  0.00    -0.206 OA
BRANCH  15  18
HETATM   18  N   UNL     1      14.651  -3.490 -14.766  1.00  0.00    -0.206 NA
HETATM   19  C   UNL     1      14.068  -2.275 -14.161  1.00  0.00     0.107 C 
HETATM   20  C   UNL     1      15.029  -1.181 -14.591  1.00  0.00     0.017 C 
HETATM   21  C   UNL     1      16.391  -1.847 -14.527  1.00  0.00     0.017 C 
HETATM   22  C   UNL     1      16.129  -3.340 -14.719  1.00  0.00     0.107 C 
ENDBRANCH  15  18
ENDBRANCH  13  15
TORSDOF 2
ENDMDL
MODEL 4
REMARK VINA RESULT:      -6.0      1.466      3.447
REMARK  2 active torsions:
REMARK  status: ('A' for Active; 'I' for Inactive)
REMARK    1  A    between atoms: C_13  and  S_15 
REMARK    2  A    between atoms: S_15  and  N_18 
ROOT
HETATM    1  C   UNL     1      23.145  -3.404 -21.999  1.00  0.00     0.048 C 
HETATM    2  C   UNL     1      22.595  -2.021 -21.801  1.00  0.00    -0.060 A 
HETATM    3  C   UNL     1      21.247  -1.826 -21.468  1.00  0.00     0.021 A 
HETATM    4  C   UNL     1      20.712  -0.541 -21.270  1.00  0.00    -0.001 A 
HETATM    5  C   UNL     1      19.277  -0.314 -20.959  1.00  0.00    -0.044 A 
HETATM    6  C   UNL     1      18.270  -1.425 -20.858  1.00  0.00     0.049 C 
HETATM    7  C   UNL     1      18.848   0.947 -20.776  1.00  0.00     0.082 A 
HETATM    8  C   UNL     1      19.739   2.115 -20.880  1.00  0.00     0.246 A 
HETATM    9  O   UNL     1      19.304   3.249 -20.710  1.00  0.00    -0.268 OA
HETATM   10  N   UNL     1      21.043   1.857 -21.173  1.00  0.00    -0.322 N 
HETATM   11  HN  UNL     1      21.636   2.680 -21.288  1.00  0.00     0.169 HD
HETATM   12  C   UNL     1      21.579   0.571 -21.377  1.00  0.00     0.069 A 
HETATM   13  C   UNL     1      22.938   0.378 -21.681  1.00  0.00     0.102 A 
HETATM   14  C   UNL     1      23.431  -0.911 -21.927  1.00  0.00     0.034 A 
ENDROOT
BRANCH  13  15
HETATM   15  S   UNL     1      24.084   1.732 -21.805  1.00  0.00     0.245 S 
HETATM   16  O   UNL     1      23.745   2.712 -20.793  1.00  0.00    -0.206 OA
HETATM   17  O   UNL     1      25.425   1.185 -21.883  1.00  0.00    -0.206 OA
BRANCH  15  18
HETATM   18  N   UNL     1      23.723   2.399 -23.324  1.00  0.00    -0.206 NA
HETATM   19  C   UNL     1      23.531   3.860 -23.406  1.00  0.00     0.107 C 
HETATM   20  C   UNL     1      23.555   4.127 -24.901  1.00  0.00     0.017 C 
HETATM   21  C   UNL     1      24.606   3.166 -25.425  1.00  0.00     0.017 C 
HETATM   22  C   UNL     1      24.645   2.012 -24.424  1.00  0.00     0.107 C 
ENDBRANCH  15  18
ENDBRANCH  13  15
TORSDOF 2
ENDMDL
MODEL 5
REMARK VINA RESULT:      -5.9     11.843     12.840
REMARK  2 active torsions:
REMARK  status: ('A' for Active; 'I' for Inactive)
REMARK    1  A    between atoms: C_13  and  S_15 
REMARK    2  A    between atoms: S_15  and  N_18 
ROOT
HETATM    1  C   UNL     1      11.384  -5.980 -17.993  1.00  0.00     0.048 C 
HETATM    2  C   UNL     1      12.666  -6.056 -17.216  1.00  0.00    -0.060 A 
HETATM    3  C   UNL     1      12.754  -5.521 -15.923  1.00  0.00     0.021 A 
HETATM    4  C   UNL     1      13.942  -5.587 -15.174  1.00  0.00    -0.001 A 
HETATM    5  C   UNL     1      14.065  -4.986 -13.821  1.00  0.00    -0.044 A 
HETATM    6  C   UNL     1      12.952  -4.234 -13.148  1.00  0.00     0.049 C 
HETATM    7  C   UNL     1      15.235  -5.102 -13.168  1.00  0.00     0.082 A 
HETATM    8  C   UNL     1      16.404  -5.792 -13.741  1.00  0.00     0.246 A 
HETATM    9  O   UNL     1      17.453  -5.870 -13.111  1.00  0.00    -0.268 OA
HETATM   10  N   UNL     1      16.243  -6.320 -14.985  1.00  0.00    -0.322 N 
HETATM   11  HN  UNL     1      17.076  -6.753 -15.386  1.00  0.00     0.169 HD
HETATM   12  C   UNL     1      15.056  -6.249 -15.739  1.00  0.00     0.069 A 
HETATM   13  C   UNL     1      14.962  -6.815 -17.023  1.00  0.00     0.102 A 
HETATM   14  C   UNL     1      13.783  -6.685 -17.768  1.00  0.00     0.034 A 
ENDROOT
BRANCH  13  15
HETATM   15  S   UNL     1      16.319  -7.682 -17.779  1.00  0.00     0.245 S 
HETATM   16  O   UNL     1      17.180  -6.711 -18.422  1.00  0.00    -0.206 OA
HETATM   17  O   UNL     1      16.855  -8.616 -16.808  1.00  0.00    -0.206 OA
BRANCH  15  18
HETATM   18  N   UNL     1      15.560  -8.595 -18.991  1.00  0.00    -0.206 NA
HETATM   19  C   UNL     1      16.084  -8.484 -20.368  1.00  0.00     0.107 C 
HETATM   20  C   UNL     1      15.409  -9.639 -21.088  1.00  0.00     0.017 C 
HETATM   21  C   UNL     1      15.382 -10.747 -20.051  1.00  0.00     0.017 C 
HETATM   22  C   UNL     1      15.403 -10.043 -18.695  1.00  0.00     0.107 C 
ENDBRANCH  15  18
ENDBRANCH  13  15
TORSDOF 2
ENDMDL
MODEL 6
REMARK VINA RESULT:      -5.8     10.868     12.853
REMARK  2 active torsions:
REMARK  status: ('A' for Active; 'I' for Inactive)
REMARK    1  A    between atoms: C_13  and  S_15 
REMARK    2  A    between atoms: S_15  and  N_18 
ROOT
HETATM    1  C   UNL     1      11.469  -7.946 -19.379  1.00  0.00     0.048 C 
HETATM    2  C   UNL     1      11.925  -6.568 -18.994  1.00  0.00    -0.060 A 
HETATM    3  C   UNL     1      11.279  -5.431 -19.500  1.00  0.00     0.021 A 
HETATM    4  C   UNL     1      11.684  -4.132 -19.147  1.00  0.00    -0.001 A 
HETATM    5  C   UNL     1      11.039  -2.916 -19.707  1.00  0.00    -0.044 A 
HETATM    6  C   UNL     1       9.926  -2.964 -20.716  1.00  0.00     0.049 C 
HETATM    7  C   UNL     1      11.481  -1.710 -19.311  1.00  0.00     0.082 A 
HETATM    8  C   UNL     1      12.585  -1.542 -18.350  1.00  0.00     0.246 A 
HETATM    9  O   UNL     1      12.960  -0.422 -18.019  1.00  0.00    -0.268 OA
HETATM   10  N   UNL     1      13.148  -2.685 -17.869  1.00  0.00    -0.322 N 
HETATM   11  HN  UNL     1      13.941  -2.550 -17.242  1.00  0.00     0.169 HD
HETATM   12  C   UNL     1      12.747  -3.986 -18.226  1.00  0.00     0.069 A 
HETATM   13  C   UNL     1      13.377  -5.125 -17.693  1.00  0.00     0.102 A 
HETATM   14  C   UNL     1      12.989  -6.406 -18.105  1.00  0.00     0.034 A 
ENDROOT
BRANCH  13  15
HETATM   15  S   UNL     1      14.704  -5.009 -16.513  1.00  0.00     0.245 S 
HETATM   16  O   UNL     1      15.126  -6.351 -16.168  1.00  0.00    -0.206 OA
HETATM   17  O   UNL     1      15.661  -4.037 -17.002  1.00  0.00    -0.206 OA
BRANCH  15  18
HETATM   18  N   UNL     1      13.946  -4.332 -15.154  1.00  0.00    -0.206 NA
HETATM   19  C   UNL     1      12.890  -5.122 -14.488  1.00  0.00     0.107 C 
HETATM   20  C   UNL     1      12.682  -4.384 -13.177  1.00  0.00     0.017 C 
HETATM   21  C   UNL     1      14.080  -3.940 -12.784  1.00  0.00     0.017 C 
HETATM   22  C   UNL     1      14.863  -3.839 -14.092  1.00  0.00     0.107 C 
ENDBRANCH  15  18
ENDBRANCH  13  15
TORSDOF 2
ENDMDL
MODEL 7
REMARK VINA RESULT:      -5.8      7.708     11.470
REMARK  2 active torsions:
REMARK  status: ('A' for Active; 'I' for Inactive)
REMARK    1  A    between atoms: C_13  and  S_15 
REMARK    2  A    between atoms: S_15  and  N_18 
ROOT
HETATM    1  C   UNL     1      16.129  -6.667 -21.168  1.00  0.00     0.048 C 
HETATM    2  C   UNL     1      16.707  -6.141 -19.886  1.00  0.00    -0.060 A 
HETATM    3  C   UNL     1      17.541  -5.014 -19.884  1.00  0.00     0.021 A 
HETATM    4  C   UNL     1      18.088  -4.500 -18.695  1.00  0.00    -0.001 A 
HETATM    5  C   UNL     1      19.008  -3.333 -18.680  1.00  0.00    -0.044 A 
HETATM    6  C   UNL     1      19.458  -2.623 -19.925  1.00  0.00     0.049 C 
HETATM    7  C   UNL     1      19.480  -2.899 -17.499  1.00  0.00     0.082 A 
HETATM    8  C   UNL     1      19.130  -3.536 -16.217  1.00  0.00     0.246 A 
HETATM    9  O   UNL     1      19.587  -3.109 -15.162  1.00  0.00    -0.268 OA
HETATM   10  N   UNL     1      18.289  -4.604 -16.283  1.00  0.00    -0.322 N 
HETATM   11  HN  UNL     1      18.094  -5.062 -15.392  1.00  0.00     0.169 HD
HETATM   12  C   UNL     1      17.745  -5.124 -17.474  1.00  0.00     0.069 A 
HETATM   13  C   UNL     1      16.884  -6.236 -17.468  1.00  0.00     0.102 A 
HETATM   14  C   UNL     1      16.399  -6.760 -18.674  1.00  0.00     0.034 A 
ENDROOT
BRANCH  13  15
HETATM   15  S   UNL     1      16.397  -7.051 -15.964  1.00  0.00     0.245 S 
HETATM   16  O   UNL     1      15.583  -8.198 -16.309  1.00  0.00    -0.206 OA
HETATM   17  O   UNL     1      17.573  -7.203 -15.131  1.00  0.00    -0.206 OA
BRANCH  15  18
HETATM   18  N   UNL     1      15.396  -5.902 -15.216  1.00  0.00    -0.206 NA
HETATM   19  C   UNL     1      13.975  -6.252 -15.018  1.00  0.00     0.107 C 
HETATM   20  C   UNL     1      13.484  -5.176 -14.065  1.00  0.00     0.017 C 
HETATM   21  C   UNL     1      14.661  -4.953 -13.132  1.00  0.00     0.017 C 
HETATM   22  C   UNL     1      15.900  -5.359 -13.928  1.00  0.00     0.107 C 
ENDBRANCH  15  18
ENDBRANCH  13  15
TORSDOF 2
ENDMDL
MODEL 8
REMARK VINA RESULT:      -5.8      8.320     10.261
REMARK  2 active torsions:
REMARK  status: ('A' for Active; 'I' for Inactive)
REMARK    1  A    between atoms: C_13  and  S_15 
REMARK    2  A    between atoms: S_15  and  N_18 
ROOT
HETATM    1  C   UNL     1      17.766  -2.828 -20.160  1.00  0.00     0.048 C 
HETATM    2  C   UNL     1      16.269  -2.717 -20.149  1.00  0.00    -0.060 A 
HETATM    3  C   UNL     1      15.498  -3.314 -21.155  1.00  0.00     0.021 A 
HETATM    4  C   UNL     1      14.095  -3.229 -21.162  1.00  0.00    -0.001 A 
HETATM    5  C   UNL     1      13.265  -3.819 -22.243  1.00  0.00    -0.044 A 
HETATM    6  C   UNL     1      13.846  -4.528 -23.434  1.00  0.00     0.049 C 
HETATM    7  C   UNL     1      11.928  -3.700 -22.169  1.00  0.00     0.082 A 
HETATM    8  C   UNL     1      11.249  -3.001 -21.063  1.00  0.00     0.246 A 
HETATM    9  O   UNL     1      10.027  -2.913 -21.038  1.00  0.00    -0.268 OA
HETATM   10  N   UNL     1      12.053  -2.472 -20.100  1.00  0.00    -0.322 N 
HETATM   11  HN  UNL     1      11.570  -1.951 -19.367  1.00  0.00     0.169 HD
HETATM   12  C   UNL     1      13.458  -2.552 -20.096  1.00  0.00     0.069 A 
HETATM   13  C   UNL     1      14.227  -1.977 -19.068  1.00  0.00     0.102 A 
HETATM   14  C   UNL     1      15.626  -2.031 -19.117  1.00  0.00     0.034 A 
ENDROOT
BRANCH  13  15
HETATM   15  S   UNL     1      13.486  -1.134 -17.688  1.00  0.00     0.245 S 
HETATM   16  O   UNL     1      12.524  -0.179 -18.199  1.00  0.00    -0.206 OA
HETATM   17  O   UNL     1      13.092  -2.128 -16.709  1.00  0.00    -0.206 OA
BRANCH  15  18
HETATM   18  N   UNL     1      14.788  -0.266 -17.029  1.00  0.00    -0.206 NA
HETATM   19  C   UNL     1      14.889   1.172 -17.349  1.00  0.00     0.107 C 
HETATM   20  C   UNL     1      15.932   1.672 -16.365  1.00  0.00     0.017 C 
HETATM   21  C   UNL     1      15.643   0.886 -15.099  1.00  0.00     0.017 C 
HETATM   22  C   UNL     1      14.968  -0.404 -15.560  1.00  0.00     0.107 C 
ENDBRANCH  15  18
ENDBRANCH  13  15
TORSDOF 2
ENDMDL
MODEL 9
REMARK VINA RESULT:      -5.8     10.677     11.984
REMARK  2 active torsions:
REMARK  status: ('A' for Active; 'I' for Inactive)
REMARK    1  A    between atoms: C_13  and  S_15 
REMARK    2  A    between atoms: S_15  and  N_18 
ROOT
HETATM    1  C   UNL     1      11.424   1.122 -18.629  1.00  0.00     0.048 C 
HETATM    2  C   UNL     1      11.782  -0.335 -18.584  1.00  0.00    -0.060 A 
HETATM    3  C   UNL     1      11.110  -1.264 -19.390  1.00  0.00     0.021 A 
HETATM    4  C   UNL     1      11.433  -2.632 -19.371  1.00  0.00    -0.001 A 
HETATM    5  C   UNL     1      10.702  -3.636 -20.186  1.00  0.00    -0.044 A 
HETATM    6  C   UNL     1       9.542  -3.288 -21.076  1.00  0.00     0.049 C 
HETATM    7  C   UNL     1      11.080  -4.924 -20.115  1.00  0.00     0.082 A 
HETATM    8  C   UNL     1      12.184  -5.385 -19.255  1.00  0.00     0.246 A 
HETATM    9  O   UNL     1      12.493  -6.571 -19.218  1.00  0.00    -0.268 OA
HETATM   10  N   UNL     1      12.819  -4.429 -18.523  1.00  0.00    -0.322 N 
HETATM   11  HN  UNL     1      13.549  -4.772 -17.897  1.00  0.00     0.169 HD
HETATM   12  C   UNL     1      12.493  -3.060 -18.537  1.00  0.00     0.069 A 
HETATM   13  C   UNL     1      13.190  -2.126 -17.749  1.00  0.00     0.102 A 
HETATM   14  C   UNL     1      12.809  -0.778 -17.749  1.00  0.00     0.034 A 
ENDROOT
BRANCH  13  15
HETATM   15  S   UNL     1      14.547  -2.596 -16.700  1.00  0.00     0.245 S 
HETATM   16  O   UNL     1      15.470  -3.397 -17.478  1.00  0.00    -0.206 OA
HETATM   17  O   UNL     1      15.006  -1.414 -15.998  1.00  0.00    -0.206 OA
BRANCH  15  18
HETATM   18  N   UNL     1      13.809  -3.608 -15.554  1.00  0.00    -0.206 NA
HETATM   19  C   UNL     1      14.379  -4.957 -15.358  1.00  0.00     0.107 C 
HETATM   20  C   UNL     1      13.706  -5.433 -14.083  1.00  0.00     0.017 C 
HETATM   21  C   UNL     1      13.625  -4.182 -13.226  1.00  0.00     0.017 C 
HETATM   22  C   UNL     1      13.616  -3.011 -14.207  1.00  0.00     0.107 C 
ENDBRANCH  15  18
ENDBRANCH  13  15
TORSDOF 2
ENDMDL
