@<TRIPOS>MOLECULE
D:\projects-current\projects\GABA\первый большой прогон по лигандам\pdb-файлы\s14.pdb
 25 28 0 0 0
SMALL
GASTEIGER

@<TRIPOS>ATOM
      1  C          2.4370    4.9320    0.0000 C.ar    0  UNK0        0.3459
      2  O          2.4370    6.4720    0.0000 O.2     0  UNK0       -0.2445
      3  O          1.1040    4.1620    0.0000 O.2     0  UNK0       -0.4178
      4  N          7.7720    4.9320    0.0000 N.am    0  UNK0       -0.1768
      5  C          9.1060    4.1620    0.0000 C.2     0  UNK0        0.2804
      6  C         10.4390    4.9320    0.0000 C.3     0  UNK0        0.2516
      7  O          9.1060    2.6220    0.0000 O.2     0  UNK0       -0.2699
      8  O         10.4390    6.4720    0.0000 O.3     0  UNK0       -0.2083
      9  C          3.7710    2.6220    0.0000 C.ar    0  UNK0        0.0440
     10  C          3.7710    4.1620    0.0000 C.ar    0  UNK0        0.0804
     11  C          5.1050    1.8520    0.0000 C.ar    0  UNK0        0.0047
     12  C          5.1050    4.9320    0.0000 C.ar    0  UNK0        0.0231
     13  C          6.4380    2.6220    0.0000 C.ar    0  UNK0        0.0167
     14  C          6.4380    4.1620    0.0000 C.ar    0  UNK0        0.0737
     15  C          2.4370    1.8520    0.0000 C.ar    0  UNK0        0.1800
     16  C          1.0310    2.4780    0.0000 C.ar    0  UNK0        0.1861
     17  O          2.2760    0.3200    0.0000 O.2     0  UNK0       -0.4472
     18  C          0.0000    1.3340    0.0000 C.ar    0  UNK0        0.0814
     19  C          0.7700    0.0000    0.0000 C.ar    0  UNK0        0.1829
     20  C         11.7730    4.1620    0.0000 C.ar    0  UNK0        0.0167
     21  C         13.1070    4.9320    0.0000 C.ar    0  UNK0       -0.0013
     22  C         11.7730    2.6220    0.0000 C.ar    0  UNK0       -0.0013
     23  C         14.4410    4.1620    0.0000 C.ar    0  UNK0       -0.0002
     24  C         13.1070    1.8520    0.0000 C.ar    0  UNK0       -0.0002
     25  C         14.4410    2.6220    0.0000 C.ar    0  UNK0       -0.0000
@<TRIPOS>BOND
     1     1     2    2
     2     1     3   ar
     3     1    10   ar
     4     4     5   am
     5     4    14    1
     6     5     6    1
     7     5     7    2
     8     6     8    1
     9     6    20    1
    10     9    10   ar
    11     9    11   ar
    12     9    15   ar
    13    10    12   ar
    14    11    13   ar
    15    12    14   ar
    16    13    14   ar
    17    15    16   ar
    18    15    17   ar
    19    16    18   ar
    20    17    19   ar
    21    18    19   ar
    22    20    21   ar
    23    20    22   ar
    24    21    23   ar
    25    22    24   ar
    26    23    25   ar
    27    24    25   ar
    28     3    16   ar
