REMARK  6 active torsions:
REMARK  status: ('A' for Active; 'I' for Inactive)
REMARK    1  A    between atoms: C_2  and  C_3 
REMARK    2  A    between atoms: C_6  and  C_22 
REMARK    3  A    between atoms: C_8  and  S_9 
REMARK    4  A    between atoms: S_9  and  N_12 
REMARK    5  A    between atoms: N_12  and  C_13 
REMARK    6  A    between atoms: C_16  and  C_19 
REMARK       I    between atoms: C_19  and  N_21 
ROOT
HETATM    1  C   UNL     1       1.933   0.659   1.536  1.00  0.00     0.010 C 
HETATM    2  C   UNL     1       2.612   0.145   0.272  1.00  0.00     0.035 C 
ENDROOT
BRANCH   2   3
HETATM    3  C   UNL     1       3.012  -1.306   0.396  1.00  0.00    -0.035 C 
HETATM    4  C   UNL     1       4.305  -1.598   0.870  1.00  0.00     0.009 C 
HETATM    5  C   UNL     1       4.756  -2.922   1.017  1.00  0.00     0.014 C 
HETATM    6  C   UNL     1       3.905  -4.005   0.768  1.00  0.00    -0.006 C 
HETATM    7  C   UNL     1       2.589  -3.705   0.423  1.00  0.00     0.039 C 
HETATM    8  C   UNL     1       2.170  -2.394   0.123  1.00  0.00     0.086 C 
BRANCH   6   9
HETATM    9  C   UNL     1       4.444  -5.420   0.878  1.00  0.00     0.065 A 
HETATM   10  C   UNL     1       3.838  -6.548   0.076  1.00  0.00    -0.017 A 
HETATM   11  C   UNL     1       2.723  -6.360  -0.923  1.00  0.00     0.042 C 
HETATM   12  C   UNL     1       4.376  -7.771   0.257  1.00  0.00     0.020 A 
HETATM   13  C   UNL     1       2.461  -7.544  -1.854  1.00  0.00     0.005 C 
HETATM   14  C   UNL     1       2.496  -8.838  -1.059  1.00  0.00     0.005 C 
HETATM   15  C   UNL     1       3.875  -9.016  -0.430  1.00  0.00     0.045 C 
HETATM   16  C   UNL     1       5.542  -7.971   1.155  1.00  0.00     0.268 A 
HETATM   17  O   UNL     1       6.031  -9.093   1.274  1.00  0.00    -0.266 OA
HETATM   18  N   UNL     1       6.018  -6.841   1.795  1.00  0.00    -0.261 N 
HETATM   19  C   UNL     1       7.184  -6.943   2.655  1.00  0.00     0.181 C 
HETATM   20  N   UNL     1       5.470  -5.590   1.665  1.00  0.00    -0.295 N 
HETATM   21  HN  UNL     1       5.861  -4.801   2.179  1.00  0.00     0.187 HD
ENDBRANCH   6   9
BRANCH   8  22
HETATM   22  S   UNL     1       0.575  -2.269  -0.691  1.00  0.00     0.263 S 
HETATM   23  O   UNL     1      -0.207  -3.422  -0.288  1.00  0.00    -0.200 OA
HETATM   24  O   UNL     1       0.025  -0.941  -0.555  1.00  0.00    -0.200 OA
BRANCH  22  25
HETATM   25  N   UNL     1       0.975  -2.559  -2.322  1.00  0.00    -0.281 N 
HETATM   26  HN  UNL     1       0.240  -3.083  -2.795  1.00  0.00     0.179 HD
BRANCH  25  27
HETATM   27  C   UNL     1       1.632  -1.532  -3.053  1.00  0.00     0.042 A 
HETATM   28  C   UNL     1       3.012  -1.605  -3.220  1.00  0.00     0.031 A 
HETATM   29  C   UNL     1       3.697  -0.541  -3.811  1.00  0.00     0.019 A 
HETATM   30  C   UNL     1       3.008   0.603  -4.239  1.00  0.00     0.032 A 
HETATM   31  C   UNL     1       1.609   0.627  -4.148  1.00  0.00     0.019 A 
HETATM   32  C   UNL     1       0.923  -0.442  -3.554  1.00  0.00     0.031 A 
BRANCH  30  33
HETATM   33  C   UNL     1       3.823   1.761  -4.711  1.00  0.00     0.249 C 
HETATM   34  O   UNL     1       5.046   1.696  -4.771  1.00  0.00    -0.268 OA
HETATM   35  N   UNL     1       3.189   2.928  -5.032  1.00  0.00    -0.366 N 
HETATM   36  HN1 UNL     1       2.204   3.105  -4.929  1.00  0.00     0.159 HD
HETATM   37  HN2 UNL     1       3.787   3.716  -5.251  1.00  0.00     0.159 HD
ENDBRANCH  30  33
ENDBRANCH  25  27
ENDBRANCH  22  25
ENDBRANCH   8  22
ENDBRANCH   2   3
TORSDOF 6
