REMARK  3 active torsions:
REMARK  status: ('A' for Active; 'I' for Inactive)
REMARK    1  A    between atoms: N_12  and  C_13 
REMARK    2  A    between atoms: C_16  and  N_19 
REMARK    3  A    between atoms: N_19  and  C_20 
ROOT
HETATM    1  C   UNL     1       5.285  -1.633   2.118  1.00  0.00     0.050 C 
HETATM    2  C   UNL     1       4.541  -1.041   0.921  1.00  0.00     0.166 C 
HETATM    3  N   UNL     1       4.980  -1.665  -0.321  1.00  0.00    -0.270 NA
HETATM    4  C   UNL     1       4.434  -0.997  -1.443  1.00  0.00     0.025 A 
HETATM    5  C   UNL     1       5.057  -1.112  -2.690  1.00  0.00     0.024 A 
HETATM    6  C   UNL     1       4.486  -0.530  -3.826  1.00  0.00     0.002 A 
HETATM    7  C   UNL     1       3.271   0.148  -3.734  1.00  0.00     0.001 A 
HETATM    8  C   UNL     1       2.615   0.236  -2.507  1.00  0.00     0.019 A 
HETATM    9  C   UNL     1       3.189  -0.344  -1.371  1.00  0.00     0.053 A 
HETATM   10  C   UNL     1       2.428  -0.396  -0.092  1.00  0.00     0.261 C 
HETATM   11  O   UNL     1       1.271   0.017  -0.062  1.00  0.00    -0.267 OA
HETATM   12  N   UNL     1       3.092  -1.034   0.960  1.00  0.00    -0.296 N 
HETATM   13  HN  UNL     1       5.993  -1.725  -0.392  1.00  0.00     0.129 HD
ENDROOT
BRANCH  12  14
HETATM   14  C   UNL     1       2.338  -1.876   1.816  1.00  0.00     0.039 A 
HETATM   15  C   UNL     1       2.588  -3.248   1.863  1.00  0.00     0.032 A 
HETATM   16  C   UNL     1       1.794  -4.089   2.654  1.00  0.00     0.031 A 
HETATM   17  C   UNL     1       0.727  -3.578   3.401  1.00  0.00     0.032 A 
HETATM   18  C   UNL     1       0.489  -2.200   3.349  1.00  0.00     0.031 A 
HETATM   19  C   UNL     1       1.272  -1.358   2.555  1.00  0.00     0.032 A 
BRANCH  17  20
HETATM   20  N   UNL     1      -0.070  -4.365   4.245  1.00  0.00    -0.365 N 
HETATM   21  HN  UNL     1      -0.987  -3.975   4.478  1.00  0.00     0.165 HD
BRANCH  20  22
HETATM   22  C   UNL     1       0.159  -5.644   4.691  1.00  0.00     0.107 C 
HETATM   23  C   UNL     1      -0.723  -6.491   5.245  1.00  0.00     0.071 C 
HETATM   24  C   UNL     1      -2.158  -6.133   5.318  1.00  0.00     0.165 C 
HETATM   25  C   UNL     1      -0.289  -7.876   5.535  1.00  0.00     0.165 C 
HETATM   26  O   UNL     1      -2.530  -4.980   5.532  1.00  0.00    -0.292 OA
HETATM   27  C   UNL     1      -3.134  -7.232   4.974  1.00  0.00     0.093 C 
HETATM   28  C   UNL     1      -2.747  -8.602   5.561  1.00  0.00    -0.034 C 
HETATM   29  C   UNL     1      -3.670  -9.667   4.935  1.00  0.00     0.015 C 
HETATM   30  C   UNL     1      -2.965  -8.608   7.086  1.00  0.00     0.015 C 
HETATM   31  C   UNL     1      -1.288  -8.972   5.231  1.00  0.00     0.093 C 
HETATM   32  O   UNL     1       0.855  -8.133   5.903  1.00  0.00    -0.292 OA
ENDBRANCH  20  22
ENDBRANCH  17  20
ENDBRANCH  12  14
TORSDOF 3
