REMARK  5 active torsions:
REMARK  status: ('A' for Active; 'I' for Inactive)
REMARK    1  A    between atoms: C_2  and  O_3 
REMARK    2  A    between atoms: O_3  and  C_4 
REMARK    3  A    between atoms: C_4  and  C_6 
REMARK    4  A    between atoms: C_12  and  C_13 
REMARK    5  A    between atoms: C_16  and  N_19 
ROOT
HETATM    1  C   UNL     1       1.275  -0.860   0.615  1.00  0.00     0.034 C 
HETATM    2  C   UNL     1       2.384  -0.592  -0.386  1.00  0.00     0.174 C 
ENDROOT
BRANCH   2   3
HETATM    3  O   UNL     1       3.275  -1.713  -0.322  1.00  0.00    -0.318 OA
BRANCH   3   4
HETATM    4  C   UNL     1       4.390  -1.540   0.429  1.00  0.00     0.292 C 
HETATM    5  O   UNL     1       4.855  -0.468   0.780  1.00  0.00    -0.259 OA
BRANCH   4   6
HETATM    6  C   UNL     1       4.882  -2.868   0.873  1.00  0.00     0.052 C 
HETATM    7  C   UNL     1       5.372  -3.061   2.132  1.00  0.00     0.019 C 
HETATM    8  C   UNL     1       5.503  -2.014   3.214  1.00  0.00     0.069 C 
HETATM    9  N   UNL     1       5.769  -4.340   2.535  1.00  0.00    -0.358 N 
HETATM   10  C   UNL     1       5.474  -5.437   1.785  1.00  0.00     0.055 A 
HETATM   11  HN  UNL     1       5.983  -4.482   3.517  1.00  0.00     0.166 HD
HETATM   12  C   UNL     1       4.989  -5.350   0.542  1.00  0.00     0.034 A 
HETATM   13  C   UNL     1       5.567  -6.819   2.202  1.00  0.00     0.005 A 
HETATM   14  C   UNL     1       4.778  -4.035  -0.144  1.00  0.00     0.099 C 
HETATM   15  C   UNL     1       4.656  -6.706   0.087  1.00  0.00     0.192 A 
HETATM   16  O   UNL     1       4.114  -7.015  -0.954  1.00  0.00    -0.287 OA
HETATM   17  C   UNL     1       5.068  -7.610   1.169  1.00  0.00     0.027 A 
HETATM   18  C   UNL     1       5.009  -8.988   1.241  1.00  0.00     0.016 A 
HETATM   19  C   UNL     1       5.489  -9.586   2.409  1.00  0.00     0.001 A 
HETATM   20  C   UNL     1       6.001  -8.800   3.460  1.00  0.00     0.001 A 
HETATM   21  C   UNL     1       6.040  -7.405   3.363  1.00  0.00     0.014 A 
BRANCH  14  22
HETATM   22  C   UNL     1       5.778  -3.889  -1.298  1.00  0.00    -0.045 A 
HETATM   23  C   UNL     1       5.434  -4.342  -2.585  1.00  0.00     0.011 A 
HETATM   24  C   UNL     1       6.365  -4.308  -3.629  1.00  0.00     0.036 A 
HETATM   25  C   UNL     1       7.654  -3.818  -3.390  1.00  0.00     0.102 A 
HETATM   26  C   UNL     1       8.014  -3.355  -2.122  1.00  0.00     0.036 A 
HETATM   27  C   UNL     1       7.081  -3.400  -1.084  1.00  0.00     0.011 A 
BRANCH  25  28
HETATM   28  N   UNL     1       8.649  -3.814  -4.468  1.00  0.00    -0.116 N 
HETATM   29  O   UNL     1       8.307  -4.262  -5.572  1.00  0.00    -0.532 OA
HETATM   30  O   UNL     1       9.778  -3.365  -4.213  1.00  0.00    -0.532 OA
ENDBRANCH  25  28
ENDBRANCH  14  22
ENDBRANCH   4   6
ENDBRANCH   3   4
ENDBRANCH   2   3
TORSDOF 5
