REMARK  4 active torsions:
REMARK  status: ('A' for Active; 'I' for Inactive)
REMARK    1  A    between atoms: C_3  and  C_4 
REMARK    2  A    between atoms: C_4  and  O_6 
REMARK    3  A    between atoms: O_6  and  C_7 
REMARK    4  A    between atoms: C_10  and  N_13 
ROOT
HETATM    1  C   UNL     1      11.958  11.415  -7.416  1.00  0.00     0.027 A 
HETATM    2  C   UNL     1      11.420  10.110  -7.362  1.00  0.00     0.045 A 
HETATM    3  C   UNL     1      11.050   9.877  -6.042  1.00  0.00     0.150 A 
HETATM    4  O   UNL     1      11.353  10.979  -5.291  1.00  0.00    -0.317 OA
HETATM    5  C   UNL     1      11.891  11.903  -6.132  1.00  0.00     0.143 A 
ENDROOT
BRANCH   3   6
HETATM    6  C   UNL     1      10.398   8.725  -5.473  1.00  0.00     0.322 C 
HETATM    7  O   UNL     1       9.949   7.808  -6.161  1.00  0.00    -0.257 OA
BRANCH   6   8
HETATM    8  O   UNL     1      10.335   8.787  -4.068  1.00  0.00    -0.273 OA
BRANCH   8   9
HETATM    9  C   UNL     1       9.681   7.747  -3.376  1.00  0.00     0.079 A 
HETATM   10  C   UNL     1       9.805   6.413  -3.737  1.00  0.00     0.039 A 
HETATM   11  C   UNL     1       9.039   5.438  -3.086  1.00  0.00     0.033 A 
HETATM   12  C   UNL     1       8.154   5.749  -2.033  1.00  0.00     0.045 A 
HETATM   13  C   UNL     1       8.138   7.091  -1.613  1.00  0.00     0.033 A 
HETATM   14  C   UNL     1       8.895   8.082  -2.275  1.00  0.00     0.039 A 
BRANCH  12  15
HETATM   15  N   UNL     1       7.261   4.753  -1.521  1.00  0.00    -0.252 N 
HETATM   16  C   UNL     1       7.393   3.407  -1.794  1.00  0.00     0.236 C 
HETATM   17  O   UNL     1       8.362   2.788  -2.220  1.00  0.00    -0.272 OA
HETATM   18  C   UNL     1       6.121   2.710  -1.422  1.00  0.00     0.097 C 
HETATM   19  C   UNL     1       6.354   1.564  -0.430  1.00  0.00     0.015 C 
HETATM   20  C   UNL     1       5.313   3.720  -0.613  1.00  0.00     0.097 C 
HETATM   21  C   UNL     1       6.534   2.339   0.893  1.00  0.00     0.013 C 
HETATM   22  C   UNL     1       5.033   0.808  -0.156  1.00  0.00     0.077 C 
HETATM   23  C   UNL     1       5.180   3.042   0.782  1.00  0.00     0.015 C 
HETATM   24  C   UNL     1       4.237   1.807   0.699  1.00  0.00     0.077 C 
HETATM   25 BR   UNL     1       3.969   1.032   2.495  1.00  0.00    -0.089 Br
HETATM   26 BR   UNL     1       4.035   0.327  -1.759  1.00  0.00    -0.089 Br
HETATM   27  C   UNL     1       6.179   4.968  -0.682  1.00  0.00     0.236 C 
HETATM   28  O   UNL     1       5.892   5.978  -0.048  1.00  0.00    -0.272 OA
ENDBRANCH  12  15
ENDBRANCH   8   9
ENDBRANCH   6   8
ENDBRANCH   3   6
TORSDOF 4
