REMARK  5 active torsions:
REMARK  status: ('A' for Active; 'I' for Inactive)
REMARK    1  A    between atoms: C_2  and  N_3 
REMARK    2  A    between atoms: C_12  and  C_13 
REMARK    3  A    between atoms: C_18  and  S_20 
REMARK    4  A    between atoms: S_20  and  N_23 
REMARK    5  A    between atoms: N_23  and  C_24 
ROOT
HETATM    1  C   UNL     1       1.118   0.367  -0.660  1.00  0.00     0.028 C 
HETATM    2  C   UNL     1       1.013  -0.911  -1.475  1.00  0.00     0.148 C 
ENDROOT
BRANCH   2   3
HETATM    3  N   UNL     1       2.307  -1.548  -1.690  1.00  0.00    -0.257 N 
HETATM    4  C   UNL     1       2.772  -2.455  -0.756  1.00  0.00     0.268 A 
HETATM    5  O   UNL     1       2.211  -2.690   0.313  1.00  0.00    -0.266 OA
HETATM    6  C   UNL     1       4.003  -3.197  -1.131  1.00  0.00     0.020 A 
HETATM    7  C   UNL     1       4.382  -4.305  -0.180  1.00  0.00     0.045 C 
HETATM    8  C   UNL     1       4.680  -2.914  -2.261  1.00  0.00    -0.017 A 
HETATM    9  C   UNL     1       5.366  -5.296  -0.791  1.00  0.00     0.005 C 
HETATM   10  C   UNL     1       6.496  -4.544  -1.478  1.00  0.00     0.005 C 
HETATM   11  C   UNL     1       5.944  -3.661  -2.604  1.00  0.00     0.042 C 
HETATM   12  C   UNL     1       4.090  -1.831  -3.123  1.00  0.00     0.065 A 
HETATM   13  N   UNL     1       2.982  -1.209  -2.834  1.00  0.00    -0.294 N 
HETATM   14  HN  UNL     1       2.622  -0.480  -3.450  1.00  0.00     0.187 HD
BRANCH  12  15
HETATM   15  C   UNL     1       4.728  -1.432  -4.430  1.00  0.00    -0.006 A 
HETATM   16  C   UNL     1       4.646  -0.097  -4.848  1.00  0.00     0.014 A 
HETATM   17  C   UNL     1       5.038   0.283  -6.142  1.00  0.00     0.009 A 
HETATM   18  C   UNL     1       5.489  -0.664  -7.079  1.00  0.00    -0.039 A 
HETATM   19  C   UNL     1       5.833  -0.197  -8.466  1.00  0.00     0.050 C 
HETATM   20  C   UNL     1       5.547  -2.004  -6.667  1.00  0.00     0.086 A 
HETATM   21  C   UNL     1       5.201  -2.368  -5.347  1.00  0.00     0.039 A 
BRANCH  20  22
HETATM   22  S   UNL     1       6.000  -3.362  -7.749  1.00  0.00     0.263 S 
HETATM   23  O   UNL     1       6.613  -2.840  -8.950  1.00  0.00    -0.200 OA
HETATM   24  O   UNL     1       6.704  -4.326  -6.929  1.00  0.00    -0.200 OA
BRANCH  22  25
HETATM   25  N   UNL     1       4.516  -3.994  -8.232  1.00  0.00    -0.280 N 
HETATM   26  HN  UNL     1       4.167  -3.669  -9.130  1.00  0.00     0.179 HD
BRANCH  25  27
HETATM   27  C   UNL     1       3.610  -4.560  -7.295  1.00  0.00     0.048 A 
HETATM   28  C   UNL     1       2.621  -3.750  -6.728  1.00  0.00     0.030 A 
HETATM   29  C   UNL     1       1.763  -4.267  -5.754  1.00  0.00     0.002 A 
HETATM   30  C   UNL     1       1.878  -5.596  -5.362  1.00  0.00     0.001 A 
HETATM   31  C   UNL     1       2.839  -6.417  -5.960  1.00  0.00     0.009 A 
HETATM   32  C   UNL     1       3.712  -5.911  -6.937  1.00  0.00    -0.035 A 
HETATM   33  C   UNL     1       4.693  -6.837  -7.601  1.00  0.00     0.050 C 
ENDBRANCH  25  27
ENDBRANCH  22  25
ENDBRANCH  20  22
ENDBRANCH  12  15
ENDBRANCH   2   3
TORSDOF 5
