REMARK  9 active torsions:
REMARK  status: ('A' for Active; 'I' for Inactive)
REMARK    1  A    between atoms: C_4  and  C_7 
REMARK    2  A    between atoms: C_7  and  O_9 
REMARK    3  A    between atoms: O_9  and  C_10 
REMARK    4  A    between atoms: C_13  and  C_16 
REMARK    5  A    between atoms: C_16  and  C_18 
REMARK    6  A    between atoms: C_18  and  O_19 
REMARK    7  A    between atoms: O_19  and  C_20 
REMARK    8  A    between atoms: C_20  and  C_22 
REMARK    9  A    between atoms: C_25  and  N_28 
ROOT
HETATM    1  C   UNL     1      -1.038   0.488  -4.188  1.00  0.00     0.000 A 
HETATM    2  C   UNL     1      -0.330   1.684  -4.234  1.00  0.00     0.001 A 
HETATM    3  C   UNL     1       0.992   1.720  -3.788  1.00  0.00     0.017 A 
HETATM    4  C   UNL     1       1.625   0.563  -3.298  1.00  0.00     0.039 A 
HETATM    5  C   UNL     1       0.899  -0.630  -3.230  1.00  0.00     0.017 A 
HETATM    6  C   UNL     1      -0.430  -0.664  -3.680  1.00  0.00     0.001 A 
ENDROOT
BRANCH   4   7
HETATM    7  C   UNL     1       3.066   0.689  -2.933  1.00  0.00     0.298 C 
HETATM    8  O   UNL     1       3.663   1.740  -3.131  1.00  0.00    -0.259 OA
BRANCH   7   9
HETATM    9  O   UNL     1       3.606  -0.484  -2.409  1.00  0.00    -0.275 OA
BRANCH   9  10
HETATM   10  C   UNL     1       4.990  -0.520  -2.094  1.00  0.00     0.079 A 
HETATM   11  C   UNL     1       5.684   0.582  -1.604  1.00  0.00     0.038 A 
HETATM   12  C   UNL     1       7.067   0.509  -1.408  1.00  0.00     0.018 A 
HETATM   13  C   UNL     1       7.776  -0.678  -1.650  1.00  0.00     0.012 A 
HETATM   14  C   UNL     1       7.056  -1.811  -2.053  1.00  0.00     0.018 A 
HETATM   15  C   UNL     1       5.665  -1.730  -2.279  1.00  0.00     0.038 A 
BRANCH  13  16
HETATM   16  C   UNL     1       9.268  -0.625  -1.473  1.00  0.00     0.183 C 
HETATM   17  O   UNL     1       9.783   0.435  -1.108  1.00  0.00    -0.290 OA
BRANCH  16  18
HETATM   18  C   UNL     1      10.132  -1.858  -1.725  1.00  0.00     0.263 C 
BRANCH  18  19
HETATM   19  O   UNL     1      11.460  -1.478  -2.139  1.00  0.00    -0.310 OA
BRANCH  19  20
HETATM   20  C   UNL     1      11.531  -1.169  -3.458  1.00  0.00     0.293 C 
HETATM   21  O   UNL     1      10.608  -1.278  -4.254  1.00  0.00    -0.259 OA
BRANCH  20  22
HETATM   22  C   UNL     1      12.892  -0.742  -3.876  1.00  0.00     0.039 A 
HETATM   23  C   UNL     1      13.813  -0.098  -3.046  1.00  0.00     0.020 A 
HETATM   24  C   UNL     1      15.040   0.377  -3.571  1.00  0.00     0.031 A 
HETATM   25  C   UNL     1      15.375   0.215  -4.929  1.00  0.00     0.046 A 
HETATM   26  C   UNL     1      14.450  -0.487  -5.719  1.00  0.00     0.031 A 
HETATM   27  C   UNL     1      13.229  -0.945  -5.211  1.00  0.00     0.020 A 
BRANCH  25  28
HETATM   28  N   UNL     1      16.572   0.761  -5.518  1.00  0.00    -0.244 N 
HETATM   29  C   UNL     1      17.538   1.504  -4.870  1.00  0.00     0.266 A 
HETATM   30  O   UNL     1      17.664   1.826  -3.702  1.00  0.00    -0.267 OA
HETATM   31  C   UNL     1      18.520   1.916  -5.885  1.00  0.00     0.048 A 
HETATM   32  C   UNL     1      19.671   2.681  -5.802  1.00  0.00     0.018 A 
HETATM   33  C   UNL     1      18.107   1.396  -7.089  1.00  0.00     0.048 A 
HETATM   34  C   UNL     1      20.389   2.910  -6.988  1.00  0.00     0.001 A 
HETATM   35  C   UNL     1      19.953   2.375  -8.216  1.00  0.00     0.001 A 
HETATM   36  C   UNL     1      18.793   1.603  -8.274  1.00  0.00     0.018 A 
HETATM   37  C   UNL     1      16.881   0.658  -6.861  1.00  0.00     0.266 A 
HETATM   38  O   UNL     1      16.337   0.102  -7.799  1.00  0.00    -0.267 OA
ENDBRANCH  25  28
ENDBRANCH  20  22
ENDBRANCH  19  20
ENDBRANCH  18  19
ENDBRANCH  16  18
ENDBRANCH  13  16
ENDBRANCH   9  10
ENDBRANCH   7   9
ENDBRANCH   4   7
TORSDOF 9
