REMARK  6 active torsions:
REMARK  status: ('A' for Active; 'I' for Inactive)
REMARK    1  A    between atoms: C_5  and  C_8 
REMARK    2  A    between atoms: C_8  and  N_9 
REMARK       I    between atoms: N_9  and  C_10 
REMARK    3  A    between atoms: N_9  and  C_13 
REMARK    4  A    between atoms: N_16  and  C_17 
REMARK    5  A    between atoms: C_17  and  C_18 
REMARK       I    between atoms: C_18  and  N_20 
REMARK    6  A    between atoms: N_20  and  C_21 
ROOT
HETATM    1  C   UNL     1       4.134  -1.306  -6.660  1.00  0.00     0.048 C 
HETATM    2  C   UNL     1       4.904  -1.552  -5.396  1.00  0.00    -0.062 A 
HETATM    3  C   UNL     1       4.921  -2.823  -4.817  1.00  0.00     0.007 A 
HETATM    4  C   UNL     1       5.405  -2.997  -3.520  1.00  0.00     0.009 A 
HETATM    5  C   UNL     1       5.886  -1.905  -2.776  1.00  0.00    -0.040 A 
HETATM    6  C   UNL     1       5.973  -0.657  -3.404  1.00  0.00     0.009 A 
HETATM    7  C   UNL     1       5.481  -0.482  -4.701  1.00  0.00     0.007 A 
ENDROOT
BRANCH   5   8
HETATM    8  C   UNL     1       6.113  -2.072  -1.282  1.00  0.00     0.172 C 
BRANCH   8   9
HETATM    9  N   UNL     1       7.205  -1.279  -0.707  1.00  0.00    -0.295 N 
HETATM   10  C   UNL     1       6.832  -0.392   0.312  1.00  0.00     0.221 C 
HETATM   11  O   UNL     1       5.650  -0.157   0.586  1.00  0.00    -0.273 OA
HETATM   12  C   UNL     1       7.892   0.263   1.171  1.00  0.00     0.117 C 
BRANCH   9  13
HETATM   13  C   UNL     1       8.519  -1.465  -1.154  1.00  0.00     0.180 C 
HETATM   14  C   UNL     1       8.927  -2.866  -1.655  1.00  0.00     0.293 C 
HETATM   15  O   UNL     1       8.142  -3.645  -2.170  1.00  0.00    -0.264 OA
HETATM   16  N   UNL     1      10.253  -3.202  -1.391  1.00  0.00    -0.300 N 
HETATM   17  C   UNL     1      11.196  -2.134  -1.542  1.00  0.00     0.065 A 
HETATM   18  C   UNL     1      12.540  -2.340  -1.878  1.00  0.00     0.032 A 
HETATM   19  C   UNL     1      10.716  -0.807  -1.450  1.00  0.00     0.061 A 
HETATM   20  C   UNL     1      13.376  -1.254  -2.159  1.00  0.00     0.002 A 
HETATM   21  C   UNL     1      12.896   0.049  -2.067  1.00  0.00     0.002 A 
HETATM   22  C   UNL     1      11.574   0.270  -1.692  1.00  0.00     0.032 A 
HETATM   23  N   UNL     1       9.391  -0.508  -1.093  1.00  0.00    -0.336 N 
HETATM   24  HN  UNL     1       9.124   0.430  -0.796  1.00  0.00     0.168 HD
BRANCH  16  25
HETATM   25  C   UNL     1      10.627  -4.605  -1.545  1.00  0.00     0.235 C 
BRANCH  25  26
HETATM   26  C   UNL     1       9.896  -5.575  -0.581  1.00  0.00     0.240 C 
HETATM   27  O   UNL     1      10.525  -6.125   0.321  1.00  0.00    -0.271 OA
HETATM   28  N   UNL     1       8.557  -5.804  -0.870  1.00  0.00    -0.326 N 
HETATM   29  HN  UNL     1       8.184  -5.315  -1.687  1.00  0.00     0.169 HD
BRANCH  28  30
HETATM   30  C   UNL     1       7.665  -6.655  -0.179  1.00  0.00     0.036 A 
HETATM   31  C   UNL     1       7.954  -7.217   1.067  1.00  0.00     0.032 A 
HETATM   32  C   UNL     1       7.071  -8.104   1.680  1.00  0.00     0.046 A 
HETATM   33  C   UNL     1       5.887  -8.448   1.041  1.00  0.00     0.138 A 
HETATM   34  C   UNL     1       5.560  -7.871  -0.186  1.00  0.00     0.074 A 
HETATM   35  F   UNL     1       5.071  -9.336   1.624  1.00  0.00    -0.204 F 
HETATM   36  C   UNL     1       6.442  -6.964  -0.792  1.00  0.00     0.056 A 
HETATM   37 CL   UNL     1       4.093  -8.292  -0.981  1.00  0.00    -0.081 Cl
ENDBRANCH  28  30
ENDBRANCH  25  26
ENDBRANCH  16  25
ENDBRANCH   9  13
ENDBRANCH   8   9
ENDBRANCH   5   8
TORSDOF 6
