REMARK  6 active torsions:
REMARK  status: ('A' for Active; 'I' for Inactive)
REMARK       I    between atoms: C_2  and  N_4 
REMARK    1  A    between atoms: N_4  and  C_5 
REMARK    2  A    between atoms: N_4  and  C_13 
REMARK    3  A    between atoms: C_5  and  C_6 
REMARK    4  A    between atoms: N_16  and  C_17 
REMARK    5  A    between atoms: C_17  and  C_18 
REMARK       I    between atoms: C_18  and  N_20 
REMARK    6  A    between atoms: N_20  and  C_21 
ROOT
HETATM    1  C   UNL     1       3.146   3.272  -1.925  1.00  0.00     0.117 C 
HETATM    2  C   UNL     1       2.493   2.195  -1.086  1.00  0.00     0.221 C 
HETATM    3  O   UNL     1       1.316   2.338  -0.745  1.00  0.00    -0.273 OA
HETATM    4  N   UNL     1       3.249   1.064  -0.741  1.00  0.00    -0.295 N 
ENDROOT
BRANCH   4   5
HETATM    5  C   UNL     1       2.556   0.094   0.125  1.00  0.00     0.174 C 
BRANCH   5   6
HETATM    6  C   UNL     1       1.600  -0.889  -0.529  1.00  0.00    -0.018 A 
HETATM    7  C   UNL     1       1.623  -1.152  -1.907  1.00  0.00     0.010 A 
HETATM    8  C   UNL     1       0.816  -2.153  -2.466  1.00  0.00     0.001 A 
HETATM    9  C   UNL     1      -0.037  -2.899  -1.660  1.00  0.00     0.002 A 
HETATM   10  C   UNL     1      -0.094  -2.641  -0.294  1.00  0.00     0.024 A 
HETATM   11  C   UNL     1       0.718  -1.649   0.267  1.00  0.00     0.042 A 
HETATM   12 CL   UNL     1       0.609  -1.424   1.981  1.00  0.00    -0.084 Cl
ENDBRANCH   5   6
ENDBRANCH   4   5
BRANCH   4  13
HETATM   13  C   UNL     1       4.650   0.989  -0.847  1.00  0.00     0.180 A 
HETATM   14  C   UNL     1       5.303  -0.400  -0.950  1.00  0.00     0.293 A 
HETATM   15  O   UNL     1       4.608  -1.404  -1.034  1.00  0.00    -0.264 OA
HETATM   16  N   UNL     1       6.697  -0.430  -0.984  1.00  0.00    -0.300 N 
HETATM   17  C   UNL     1       7.448   0.777  -1.034  1.00  0.00     0.065 A 
HETATM   18  C   UNL     1       8.846   0.797  -1.144  1.00  0.00     0.032 A 
HETATM   19  C   UNL     1       6.751   1.994  -0.983  1.00  0.00     0.061 A 
HETATM   20  C   UNL     1       9.533   2.011  -1.233  1.00  0.00     0.002 A 
HETATM   21  C   UNL     1       8.838   3.214  -1.192  1.00  0.00     0.002 A 
HETATM   22  C   UNL     1       7.452   3.202  -1.057  1.00  0.00     0.032 A 
HETATM   23  N   UNL     1       5.361   2.070  -0.869  1.00  0.00    -0.336 N 
HETATM   24  HN  UNL     1       4.905   2.980  -0.803  1.00  0.00     0.168 HD
BRANCH  16  25
HETATM   25  C   UNL     1       7.332  -1.735  -1.112  1.00  0.00     0.235 C 
BRANCH  25  26
HETATM   26  C   UNL     1       7.834  -2.367   0.190  1.00  0.00     0.240 C 
HETATM   27  O   UNL     1       8.337  -3.490   0.141  1.00  0.00    -0.271 OA
HETATM   28  N   UNL     1       7.733  -1.584   1.325  1.00  0.00    -0.326 N 
HETATM   29  HN  UNL     1       7.486  -0.611   1.192  1.00  0.00     0.169 HD
BRANCH  28  30
HETATM   30  C   UNL     1       8.086  -1.979   2.640  1.00  0.00     0.037 A 
HETATM   31  C   UNL     1       8.288  -3.316   3.003  1.00  0.00     0.029 A 
HETATM   32  C   UNL     1       8.666  -3.658   4.305  1.00  0.00     0.005 A 
HETATM   33  C   UNL     1       8.839  -2.665   5.262  1.00  0.00     0.042 A 
HETATM   34  C   UNL     1       8.613  -1.337   4.910  1.00  0.00     0.118 A 
HETATM   35  C   UNL     1       8.228  -0.988   3.616  1.00  0.00     0.071 A 
HETATM   36  F   UNL     1       8.780  -0.379   5.829  1.00  0.00    -0.206 F 
ENDBRANCH  28  30
ENDBRANCH  25  26
ENDBRANCH  16  25
ENDBRANCH   4  13
TORSDOF 6
