REMARK  5 active torsions:
REMARK  status: ('A' for Active; 'I' for Inactive)
REMARK    1  A    between atoms: C_5  and  C_21 
REMARK    2  A    between atoms: C_7  and  S_8 
REMARK    3  A    between atoms: S_8  and  N_11 
REMARK    4  A    between atoms: N_11  and  C_12 
REMARK    5  A    between atoms: C_15  and  C_18 
REMARK       I    between atoms: C_18  and  N_20 
ROOT
HETATM    1  C   UNL     1       0.837   0.354   0.020  1.00  0.00     0.050 C 
HETATM    2  C   UNL     1       2.328   0.191  -0.051  1.00  0.00    -0.039 C 
HETATM    3  C   UNL     1       3.124   1.345  -0.151  1.00  0.00     0.009 C 
HETATM    4  C   UNL     1       4.517   1.262  -0.296  1.00  0.00     0.014 C 
HETATM    5  C   UNL     1       5.171   0.024  -0.293  1.00  0.00    -0.006 C 
HETATM    6  C   UNL     1       4.390  -1.108  -0.053  1.00  0.00     0.039 C 
HETATM    7  C   UNL     1       2.982  -1.048  -0.038  1.00  0.00     0.081 C 
ENDROOT
BRANCH   7   8
HETATM    8  S   UNL     1       2.127  -2.622  -0.040  1.00  0.00     0.246 S 
HETATM    9  O   UNL     1       2.969  -3.567   0.667  1.00  0.00    -0.206 OA
HETATM   10  O   UNL     1       0.737  -2.460   0.331  1.00  0.00    -0.206 OA
BRANCH   8  11
HETATM   11  N   UNL     1       2.194  -3.104  -1.670  1.00  0.00    -0.181 NA
HETATM   12  HN  UNL     1       2.198  -4.126  -1.712  1.00  0.00     0.146 HD
BRANCH  11  13
HETATM   13  C   UNL     1       1.349  -2.453  -2.615  1.00  0.00     0.022 A 
HETATM   14  C   UNL     1       1.839  -1.366  -3.334  1.00  0.00     0.025 A 
HETATM   15  C   UNL     1       1.018  -0.714  -4.260  1.00  0.00     0.019 A 
HETATM   16  C   UNL     1      -0.303  -1.138  -4.475  1.00  0.00     0.031 A 
HETATM   17  C   UNL     1      -0.783  -2.239  -3.753  1.00  0.00     0.019 A 
HETATM   18  C   UNL     1       0.040  -2.890  -2.822  1.00  0.00     0.025 A 
BRANCH  16  19
HETATM   19  C   UNL     1      -1.125  -0.375  -5.462  1.00  0.00     0.249 C 
HETATM   20  O   UNL     1      -0.658   0.576  -6.078  1.00  0.00    -0.268 OA
HETATM   21  N   UNL     1      -2.425  -0.744  -5.666  1.00  0.00    -0.366 N 
HETATM   22  HN1 UNL     1      -2.909  -1.483  -5.184  1.00  0.00     0.159 HD
HETATM   23  HN2 UNL     1      -2.957  -0.180  -6.317  1.00  0.00     0.159 HD
ENDBRANCH  16  19
ENDBRANCH  11  13
ENDBRANCH   8  11
ENDBRANCH   7   8
BRANCH   5  24
HETATM   24  C   UNL     1       6.661  -0.008  -0.579  1.00  0.00     0.065 A 
HETATM   25  C   UNL     1       7.300  -1.215  -1.221  1.00  0.00    -0.017 A 
HETATM   26  C   UNL     1       6.530  -2.436  -1.656  1.00  0.00     0.042 C 
HETATM   27  C   UNL     1       8.626  -1.140  -1.445  1.00  0.00     0.020 A 
HETATM   28  C   UNL     1       7.290  -3.404  -2.561  1.00  0.00     0.005 C 
HETATM   29  C   UNL     1       8.701  -3.599  -2.032  1.00  0.00     0.005 C 
HETATM   30  C   UNL     1       9.439  -2.264  -2.039  1.00  0.00     0.045 C 
HETATM   31  C   UNL     1       9.393   0.096  -1.142  1.00  0.00     0.268 A 
HETATM   32  O   UNL     1      10.592   0.152  -1.409  1.00  0.00    -0.266 OA
HETATM   33  N   UNL     1       8.670   1.136  -0.587  1.00  0.00    -0.261 N 
HETATM   34  C   UNL     1       9.325   2.404  -0.320  1.00  0.00     0.181 C 
HETATM   35  N   UNL     1       7.328   1.077  -0.301  1.00  0.00    -0.295 N 
HETATM   36  HN  UNL     1       6.857   1.875   0.125  1.00  0.00     0.187 HD
ENDBRANCH   5  24
TORSDOF 5
