REMARK  5 active torsions:
REMARK  status: ('A' for Active; 'I' for Inactive)
REMARK    1  A    between atoms: C_2  and  C_3 
REMARK    2  A    between atoms: C_6  and  C_21 
REMARK    3  A    between atoms: C_8  and  S_9 
REMARK    4  A    between atoms: S_9  and  N_12 
REMARK    5  A    between atoms: C_15  and  C_18 
REMARK       I    between atoms: C_18  and  N_20 
ROOT
HETATM    1  C   UNL     1       0.975  -0.181   0.077  1.00  0.00     0.010 C 
HETATM    2  C   UNL     1       2.453   0.148   0.241  1.00  0.00     0.035 C 
ENDROOT
BRANCH   2   3
HETATM    3  C   UNL     1       2.862   1.258  -0.694  1.00  0.00    -0.035 C 
HETATM    4  C   UNL     1       2.639   2.580  -0.257  1.00  0.00     0.009 C 
HETATM    5  C   UNL     1       2.810   3.672  -1.115  1.00  0.00     0.014 C 
HETATM    6  C   UNL     1       3.255   3.476  -2.427  1.00  0.00    -0.006 C 
HETATM    7  C   UNL     1       3.644   2.194  -2.804  1.00  0.00     0.039 C 
HETATM    8  C   UNL     1       3.389   1.078  -1.987  1.00  0.00     0.086 C 
BRANCH   6   9
HETATM    9  C   UNL     1       3.274   4.647  -3.365  1.00  0.00     0.065 A 
HETATM   10  C   UNL     1       2.887   4.463  -4.808  1.00  0.00    -0.017 A 
HETATM   11  C   UNL     1       2.427   3.145  -5.384  1.00  0.00     0.042 C 
HETATM   12  C   UNL     1       2.930   5.569  -5.574  1.00  0.00     0.020 A 
HETATM   13  C   UNL     1       1.763   3.242  -6.758  1.00  0.00     0.005 C 
HETATM   14  C   UNL     1       2.571   4.166  -7.656  1.00  0.00     0.005 C 
HETATM   15  C   UNL     1       2.621   5.568  -7.052  1.00  0.00     0.045 C 
HETATM   16  C   UNL     1       3.290   6.893  -4.998  1.00  0.00     0.268 A 
HETATM   17  O   UNL     1       3.289   7.892  -5.715  1.00  0.00    -0.266 OA
HETATM   18  N   UNL     1       3.602   6.904  -3.649  1.00  0.00    -0.261 N 
HETATM   19  C   UNL     1       3.973   8.146  -2.996  1.00  0.00     0.181 C 
HETATM   20  N   UNL     1       3.593   5.795  -2.846  1.00  0.00    -0.295 N 
HETATM   21  HN  UNL     1       3.833   5.869  -1.857  1.00  0.00     0.187 HD
ENDBRANCH   6   9
BRANCH   8  22
HETATM   22  S   UNL     1       3.616  -0.505  -2.805  1.00  0.00     0.261 S 
HETATM   23  O   UNL     1       2.926  -1.549  -2.083  1.00  0.00    -0.200 OA
HETATM   24  O   UNL     1       3.316  -0.283  -4.207  1.00  0.00    -0.200 OA
BRANCH  22  25
HETATM   25  N   UNL     1       5.290  -0.751  -2.659  1.00  0.00    -0.307 N 
HETATM   26  C   UNL     1       5.834  -1.060  -1.315  1.00  0.00     0.136 C 
HETATM   27  C   UNL     1       5.760  -2.559  -1.017  1.00  0.00     0.034 C 
HETATM   28  C   UNL     1       6.406  -3.410  -2.119  1.00  0.00     0.081 C 
HETATM   29  C   UNL     1       5.850  -3.015  -3.492  1.00  0.00     0.034 C 
HETATM   30  C   UNL     1       5.961  -1.516  -3.735  1.00  0.00     0.136 C 
BRANCH  28  31
HETATM   31  C   UNL     1       7.928  -3.314  -2.064  1.00  0.00     0.219 C 
HETATM   32  O   UNL     1       8.546  -2.613  -1.272  1.00  0.00    -0.273 OA
HETATM   33  N   UNL     1       8.601  -4.089  -2.960  1.00  0.00    -0.370 N 
HETATM   34  HN1 UNL     1       8.161  -4.853  -3.454  1.00  0.00     0.159 HD
HETATM   35  HN2 UNL     1       9.610  -4.101  -2.876  1.00  0.00     0.159 HD
ENDBRANCH  28  31
ENDBRANCH  22  25
ENDBRANCH   8  22
ENDBRANCH   2   3
TORSDOF 5
