REMARK  1 active torsions:
REMARK  status: ('A' for Active; 'I' for Inactive)
REMARK    1  A    between atoms: C_5  and  N_9 
ROOT
HETATM    1  C   UNL     1       1.173   0.483   0.708  1.00  0.00     0.048 C 
HETATM    2  C   UNL     1       2.611   0.194   0.386  1.00  0.00    -0.061 A 
HETATM    3  C   UNL     1       3.637   0.546   1.256  1.00  0.00     0.009 A 
HETATM    4  C   UNL     1       4.975   0.343   0.896  1.00  0.00     0.031 A 
HETATM    5  C   UNL     1       5.326  -0.230  -0.339  1.00  0.00     0.051 A 
HETATM    6  C   UNL     1       4.289  -0.598  -1.223  1.00  0.00    -0.034 A 
HETATM    7  C   UNL     1       4.531  -1.107  -2.620  1.00  0.00     0.050 C 
HETATM    8  C   UNL     1       2.944  -0.399  -0.836  1.00  0.00     0.015 A 
ENDROOT
BRANCH   5   9
HETATM    9  N   UNL     1       6.697  -0.283  -0.720  1.00  0.00    -0.251 N 
HETATM   10  C   UNL     1       7.343  -1.405  -1.198  1.00  0.00     0.236 C 
HETATM   11  O   UNL     1       6.971  -2.567  -1.145  1.00  0.00    -0.272 OA
HETATM   12  C   UNL     1       8.695  -0.980  -1.746  1.00  0.00     0.096 C 
HETATM   13  C   UNL     1       9.945  -1.667  -1.151  1.00  0.00    -0.000 C 
HETATM   14  C   UNL     1       8.837   0.460  -1.260  1.00  0.00     0.096 C 
HETATM   15  C   UNL     1      11.222  -1.128  -1.843  1.00  0.00     0.006 C 
HETATM   16  C   UNL     1      10.081  -0.981   0.207  1.00  0.00     0.011 C 
HETATM   17  C   UNL     1      11.287   0.339  -1.379  1.00  0.00     0.006 C 
HETATM   18  C   UNL     1      10.105   0.428  -0.397  1.00  0.00    -0.000 C 
HETATM   19  C   UNL     1       7.572   0.753  -0.508  1.00  0.00     0.236 C 
HETATM   20  O   UNL     1       7.408   1.785   0.127  1.00  0.00    -0.272 OA
ENDBRANCH   5   9
TORSDOF 1
