REMARK  5 active torsions:
REMARK  status: ('A' for Active; 'I' for Inactive)
REMARK    1  A    between atoms: C_7  and  C_8 
REMARK    2  A    between atoms: C_8  and  N_9 
REMARK    3  A    between atoms: N_9  and  S_10 
REMARK    4  A    between atoms: S_10  and  C_13 
REMARK    5  A    between atoms: C_15  and  C_20 
ROOT
HETATM    1  C   UNL     1       3.999  -2.016  -3.490  1.00  0.00     0.049 C 
HETATM    2  C   UNL     1       2.911  -2.477  -4.421  1.00  0.00    -0.054 A 
HETATM    3  C   UNL     1       3.202  -2.545  -5.797  1.00  0.00     0.007 A 
HETATM    4  C   UNL     1       2.227  -2.929  -6.718  1.00  0.00     0.001 A 
HETATM    5  C   UNL     1       0.952  -3.257  -6.278  1.00  0.00     0.001 A 
HETATM    6  C   UNL     1       0.645  -3.197  -4.919  1.00  0.00     0.009 A 
HETATM    7  C   UNL     1       1.611  -2.802  -3.972  1.00  0.00    -0.038 A 
ENDROOT
BRANCH   7   8
HETATM    8  C   UNL     1       1.175  -2.658  -2.527  1.00  0.00     0.143 C 
BRANCH   8   9
HETATM    9  N   UNL     1       0.597  -3.893  -1.976  1.00  0.00    -0.211 NA
HETATM   10  HN  UNL     1       1.161  -4.731  -2.128  1.00  0.00     0.140 HD
BRANCH   9  11
HETATM   11  S   UNL     1       0.070  -3.853  -0.376  1.00  0.00     0.242 S 
HETATM   12  O   UNL     1       0.201  -5.212   0.102  1.00  0.00    -0.206 OA
HETATM   13  O   UNL     1       0.751  -2.772   0.300  1.00  0.00    -0.206 OA
BRANCH  11  14
HETATM   14  C   UNL     1      -1.686  -3.490  -0.472  1.00  0.00     0.081 C 
HETATM   15  C   UNL     1      -2.582  -4.585  -0.547  1.00  0.00     0.039 C 
HETATM   16  C   UNL     1      -3.973  -4.395  -0.446  1.00  0.00    -0.006 C 
HETATM   17  C   UNL     1      -4.426  -3.123  -0.105  1.00  0.00     0.014 C 
HETATM   18  C   UNL     1      -3.564  -2.029  -0.096  1.00  0.00     0.009 C 
HETATM   19  C   UNL     1      -2.188  -2.183  -0.310  1.00  0.00    -0.039 C 
HETATM   20  C   UNL     1      -1.362  -0.930  -0.296  1.00  0.00     0.050 C 
BRANCH  16  21
HETATM   21  C   UNL     1      -4.920  -5.552  -0.669  1.00  0.00     0.065 A 
HETATM   22  C   UNL     1      -6.288  -5.315  -1.274  1.00  0.00    -0.017 A 
HETATM   23  C   UNL     1      -6.766  -3.966  -1.760  1.00  0.00     0.042 C 
HETATM   24  C   UNL     1      -7.070  -6.399  -1.422  1.00  0.00     0.020 A 
HETATM   25  C   UNL     1      -8.023  -3.993  -2.633  1.00  0.00     0.005 C 
HETATM   26  C   UNL     1      -9.050  -4.937  -2.032  1.00  0.00     0.005 C 
HETATM   27  C   UNL     1      -8.476  -6.351  -1.978  1.00  0.00     0.045 C 
HETATM   28  C   UNL     1      -6.582  -7.756  -1.065  1.00  0.00     0.268 A 
HETATM   29  O   UNL     1      -7.307  -8.733  -1.250  1.00  0.00    -0.266 OA
HETATM   30  N   UNL     1      -5.294  -7.822  -0.557  1.00  0.00    -0.261 N 
HETATM   31  C   UNL     1      -4.721  -9.115  -0.224  1.00  0.00     0.181 C 
HETATM   32  N   UNL     1      -4.480  -6.737  -0.357  1.00  0.00    -0.295 N 
HETATM   33  HN  UNL     1      -3.544  -6.856   0.030  1.00  0.00     0.187 HD
ENDBRANCH  16  21
ENDBRANCH  11  14
ENDBRANCH   9  11
ENDBRANCH   8   9
ENDBRANCH   7   8
TORSDOF 5
