REMARK  6 active torsions:
REMARK  status: ('A' for Active; 'I' for Inactive)
REMARK       I    between atoms: C_2  and  N_4 
REMARK    1  A    between atoms: N_4  and  C_5 
REMARK    2  A    between atoms: N_4  and  C_13 
REMARK    3  A    between atoms: C_5  and  C_6 
REMARK    4  A    between atoms: N_16  and  C_17 
REMARK    5  A    between atoms: C_17  and  C_18 
REMARK       I    between atoms: C_18  and  N_20 
REMARK    6  A    between atoms: N_20  and  C_21 
ROOT
HETATM    1  C   UNL     1       3.166  -1.550  -2.944  1.00  0.00     0.117 C 
HETATM    2  C   UNL     1       2.460  -1.499  -1.605  1.00  0.00     0.221 C 
HETATM    3  O   UNL     1       1.227  -1.607  -1.608  1.00  0.00    -0.273 OA
HETATM    4  N   UNL     1       3.187  -1.262  -0.434  1.00  0.00    -0.295 N 
ENDROOT
BRANCH   4   5
HETATM    5  C   UNL     1       2.392  -0.919   0.752  1.00  0.00     0.172 C 
BRANCH   5   6
HETATM    6  C   UNL     1       2.565  -1.862   1.935  1.00  0.00    -0.040 A 
HETATM    7  C   UNL     1       2.504  -1.342   3.242  1.00  0.00     0.012 A 
HETATM    8  C   UNL     1       2.565  -2.186   4.352  1.00  0.00     0.043 A 
HETATM    9  C   UNL     1       2.682  -3.556   4.161  1.00  0.00     0.116 A 
HETATM   10  C   UNL     1       2.765  -4.094   2.882  1.00  0.00     0.043 A 
HETATM   11  F   UNL     1       2.708  -4.371   5.224  1.00  0.00    -0.206 F 
HETATM   12  C   UNL     1       2.703  -3.250   1.769  1.00  0.00     0.012 A 
ENDBRANCH   5   6
ENDBRANCH   4   5
BRANCH   4  13
HETATM   13  C   UNL     1       4.581  -1.375  -0.322  1.00  0.00     0.180 C 
HETATM   14  C   UNL     1       5.318  -0.424   0.639  1.00  0.00     0.293 C 
HETATM   15  O   UNL     1       4.788   0.066   1.628  1.00  0.00    -0.264 OA
HETATM   16  N   UNL     1       6.625  -0.127   0.260  1.00  0.00    -0.300 N 
HETATM   17  C   UNL     1       7.360  -1.166  -0.377  1.00  0.00     0.065 A 
HETATM   18  C   UNL     1       8.759  -1.224  -0.365  1.00  0.00     0.032 A 
HETATM   19  C   UNL     1       6.637  -2.226  -0.965  1.00  0.00     0.061 A 
HETATM   20  C   UNL     1       9.425  -2.333  -0.897  1.00  0.00     0.002 A 
HETATM   21  C   UNL     1       8.705  -3.374  -1.478  1.00  0.00     0.002 A 
HETATM   22  C   UNL     1       7.316  -3.310  -1.524  1.00  0.00     0.032 A 
HETATM   23  N   UNL     1       5.236  -2.230  -1.045  1.00  0.00    -0.336 N 
HETATM   24  HN  UNL     1       4.747  -2.886  -1.654  1.00  0.00     0.168 HD
BRANCH  16  25
HETATM   25  C   UNL     1       7.256   0.986   0.951  1.00  0.00     0.235 C 
BRANCH  25  26
HETATM   26  C   UNL     1       6.399   2.269   0.866  1.00  0.00     0.240 C 
HETATM   27  O   UNL     1       5.574   2.461  -0.026  1.00  0.00    -0.271 OA
HETATM   28  N   UNL     1       6.757   3.214   1.821  1.00  0.00    -0.321 N 
HETATM   29  HN  UNL     1       7.727   3.209   2.114  1.00  0.00     0.169 HD
BRANCH  28  30
HETATM   30  C   UNL     1       6.097   4.461   1.916  1.00  0.00     0.112 A 
HETATM   31  C   UNL     1       4.706   4.601   1.911  1.00  0.00     0.146 A 
HETATM   32  C   UNL     1       4.115   5.864   1.972  1.00  0.00     0.045 A 
HETATM   33  F   UNL     1       3.906   3.525   1.931  1.00  0.00    -0.204 F 
HETATM   34  C   UNL     1       4.915   7.008   2.023  1.00  0.00     0.006 A 
HETATM   35  C   UNL     1       6.303   6.880   2.056  1.00  0.00     0.045 A 
HETATM   36  C   UNL     1       6.879   5.612   2.028  1.00  0.00     0.146 A 
HETATM   37  F   UNL     1       8.217   5.500   2.050  1.00  0.00    -0.204 F 
ENDBRANCH  28  30
ENDBRANCH  25  26
ENDBRANCH  16  25
ENDBRANCH   4  13
TORSDOF 6
