REMARK  7 active torsions:
REMARK  status: ('A' for Active; 'I' for Inactive)
REMARK    1  A    between atoms: C_2  and  C_3 
REMARK    2  A    between atoms: C_3  and  C_4 
REMARK    3  A    between atoms: C_3  and  N_17 
REMARK       I    between atoms: C_4  and  N_6 
REMARK    4  A    between atoms: N_6  and  C_7 
REMARK    5  A    between atoms: C_10  and  O_15 
REMARK    6  A    between atoms: C_11  and  O_13 
REMARK    7  A    between atoms: C_22  and  C_23 
ROOT
HETATM    1  C   UNL     1       0.887  -0.202   0.032  1.00  0.00     0.007 C 
HETATM    2  C   UNL     1       2.405  -0.155   0.024  1.00  0.00     0.032 C 
ENDROOT
BRANCH   2   3
HETATM    3  C   UNL     1       2.983   0.840  -0.997  1.00  0.00     0.203 C 
BRANCH   3   4
HETATM    4  C   UNL     1       2.467   2.269  -0.760  1.00  0.00     0.247 C 
HETATM    5  O   UNL     1       1.595   2.748  -1.483  1.00  0.00    -0.271 OA
HETATM    6  N   UNL     1       2.993   2.869   0.375  1.00  0.00    -0.325 N 
HETATM    7  HN  UNL     1       3.806   2.387   0.761  1.00  0.00     0.169 HD
BRANCH   6   8
HETATM    8  C   UNL     1       2.692   4.155   0.862  1.00  0.00     0.037 A 
HETATM    9  C   UNL     1       1.568   4.880   0.469  1.00  0.00     0.032 A 
HETATM   10  C   UNL     1       1.368   6.190   0.919  1.00  0.00     0.042 A 
HETATM   11  C   UNL     1       2.301   6.801   1.757  1.00  0.00     0.101 A 
HETATM   12  C   UNL     1       3.418   6.061   2.186  1.00  0.00     0.103 A 
HETATM   13  C   UNL     1       3.587   4.733   1.767  1.00  0.00     0.069 A 
BRANCH  11  14
HETATM   14  O   UNL     1       2.224   8.102   2.188  1.00  0.00    -0.353 OA
HETATM   15  C   UNL     1       1.147   8.891   1.698  1.00  0.00     0.210 C 
ENDBRANCH  11  14
BRANCH  12  16
HETATM   16  O   UNL     1       4.295   6.697   3.034  1.00  0.00    -0.353 OA
HETATM   17  C   UNL     1       5.654   6.287   2.932  1.00  0.00     0.210 C 
ENDBRANCH  12  16
ENDBRANCH   6   8
ENDBRANCH   3   4
BRANCH   3  18
HETATM   18  N   UNL     1       4.461   0.848  -0.983  1.00  0.00    -0.243 N 
HETATM   19  C   UNL     1       5.146   0.715  -2.186  1.00  0.00     0.262 C 
HETATM   20  O   UNL     1       4.632   0.509  -3.279  1.00  0.00    -0.267 OA
HETATM   21  C   UNL     1       6.611   0.858  -2.109  1.00  0.00     0.078 C 
HETATM   22  C   UNL     1       7.233   0.924  -0.932  1.00  0.00     0.037 C 
HETATM   23  C   UNL     1       6.390   0.832   0.283  1.00  0.00     0.059 C 
HETATM   24  N   UNL     1       5.091   0.873   0.255  1.00  0.00    -0.294 N 
HETATM   25  HN  UNL     1       4.549   0.922   1.118  1.00  0.00     0.187 HD
BRANCH  23  26
HETATM   26  C   UNL     1       7.108   0.641   1.587  1.00  0.00    -0.002 A 
HETATM   27  C   UNL     1       8.325   1.309   1.811  1.00  0.00     0.021 A 
HETATM   28  C   UNL     1       9.078   1.072   2.969  1.00  0.00    -0.061 A 
HETATM   29  C   UNL     1      10.424   1.706   3.161  1.00  0.00     0.048 C 
HETATM   30  C   UNL     1       8.585   0.192   3.932  1.00  0.00     0.007 A 
HETATM   31  C   UNL     1       7.363  -0.453   3.740  1.00  0.00     0.008 A 
HETATM   32  C   UNL     1       6.613  -0.249   2.572  1.00  0.00    -0.049 A 
HETATM   33  C   UNL     1       5.353  -1.052   2.402  1.00  0.00     0.049 C 
ENDBRANCH  23  26
ENDBRANCH   3  18
ENDBRANCH   2   3
TORSDOF 7
