REMARK  7 active torsions:
REMARK  status: ('A' for Active; 'I' for Inactive)
REMARK    1  A    between atoms: C_2  and  C_3 
REMARK    2  A    between atoms: C_3  and  C_4 
REMARK    3  A    between atoms: C_3  and  N_17 
REMARK       I    between atoms: C_4  and  N_6 
REMARK    4  A    between atoms: N_6  and  C_7 
REMARK    5  A    between atoms: C_10  and  O_15 
REMARK    6  A    between atoms: C_11  and  O_13 
REMARK    7  A    between atoms: C_22  and  C_23 
ROOT
HETATM    1  C   UNL     1       1.093   0.037   0.050  1.00  0.00     0.007 C 
HETATM    2  C   UNL     1       2.585  -0.097  -0.239  1.00  0.00     0.032 C 
ENDROOT
BRANCH   2   3
HETATM    3  C   UNL     1       3.014  -1.486  -0.744  1.00  0.00     0.203 C 
BRANCH   3   4
HETATM    4  C   UNL     1       2.331  -1.930  -2.061  1.00  0.00     0.247 C 
HETATM    5  O   UNL     1       1.111  -1.905  -2.213  1.00  0.00    -0.271 OA
HETATM    6  N   UNL     1       3.228  -2.356  -3.019  1.00  0.00    -0.325 N 
HETATM    7  HN  UNL     1       4.163  -1.976  -2.871  1.00  0.00     0.169 HD
BRANCH   6   8
HETATM    8  C   UNL     1       2.911  -2.847  -4.287  1.00  0.00     0.037 A 
HETATM    9  C   UNL     1       1.814  -3.669  -4.523  1.00  0.00     0.032 A 
HETATM   10  C   UNL     1       1.577  -4.159  -5.811  1.00  0.00     0.042 A 
HETATM   11  C   UNL     1       2.423  -3.808  -6.870  1.00  0.00     0.101 A 
HETATM   12  C   UNL     1       3.522  -2.958  -6.629  1.00  0.00     0.103 A 
HETATM   13  C   UNL     1       3.772  -2.509  -5.331  1.00  0.00     0.069 A 
BRANCH  11  14
HETATM   14  O   UNL     1       2.267  -4.236  -8.165  1.00  0.00    -0.353 OA
HETATM   15  C   UNL     1       1.218  -5.154  -8.431  1.00  0.00     0.210 C 
ENDBRANCH  11  14
BRANCH  12  16
HETATM   16  O   UNL     1       4.295  -2.627  -7.715  1.00  0.00    -0.353 OA
HETATM   17  C   UNL     1       5.324  -1.665  -7.513  1.00  0.00     0.210 C 
ENDBRANCH  12  16
ENDBRANCH   6   8
ENDBRANCH   3   4
BRANCH   3  18
HETATM   18  N   UNL     1       4.500  -1.589  -0.801  1.00  0.00    -0.243 N 
HETATM   19  C   UNL     1       5.150  -2.411   0.112  1.00  0.00     0.262 A 
HETATM   20  O   UNL     1       4.598  -3.091   0.971  1.00  0.00    -0.267 OA
HETATM   21  C   UNL     1       6.621  -2.429   0.037  1.00  0.00     0.078 A 
HETATM   22  C   UNL     1       7.272  -1.738  -0.897  1.00  0.00     0.037 A 
HETATM   23  C   UNL     1       6.459  -0.990  -1.880  1.00  0.00     0.059 A 
HETATM   24  N   UNL     1       5.162  -0.902  -1.816  1.00  0.00    -0.294 N 
HETATM   25  HN  UNL     1       4.643  -0.343  -2.493  1.00  0.00     0.187 HD
BRANCH  23  26
HETATM   26  C   UNL     1       7.220  -0.316  -2.989  1.00  0.00    -0.002 A 
HETATM   27  C   UNL     1       8.350  -0.954  -3.522  1.00  0.00     0.021 A 
HETATM   28  C   UNL     1       9.160  -0.331  -4.480  1.00  0.00    -0.061 A 
HETATM   29  C   UNL     1      10.440  -0.962  -4.948  1.00  0.00     0.048 C 
HETATM   30  C   UNL     1       8.792   0.929  -4.956  1.00  0.00     0.007 A 
HETATM   31  C   UNL     1       7.639   1.554  -4.477  1.00  0.00     0.008 A 
HETATM   32  C   UNL     1       6.845   0.951  -3.484  1.00  0.00    -0.049 A 
HETATM   33  C   UNL     1       5.658   1.712  -2.961  1.00  0.00     0.049 C 
ENDBRANCH  23  26
ENDBRANCH   3  18
ENDBRANCH   2   3
TORSDOF 7
