REMARK  7 active torsions:
REMARK  status: ('A' for Active; 'I' for Inactive)
REMARK    1  A    between atoms: N_19  and  C_20 
REMARK    2  A    between atoms: C_25  and  C_26 
REMARK    3  A    between atoms: C_26  and  O_28 
REMARK    4  A    between atoms: O_28  and  C_29 
REMARK    5  A    between atoms: C_29  and  C_30 
REMARK    6  A    between atoms: C_30  and  C_32 
REMARK    7  A    between atoms: C_35  and  N_38 
ROOT
HETATM    1  C   UNL     1      -3.226  -0.984  -0.322  1.00  0.00     0.001 C 
HETATM    2  C   UNL     1      -3.293  -0.888   1.074  1.00  0.00     0.001 C 
HETATM    3  C   UNL     1      -2.315  -0.192   1.800  1.00  0.00     0.010 C 
HETATM    4  C   UNL     1      -1.259   0.411   1.122  1.00  0.00    -0.026 C 
HETATM    5  C   UNL     1      -1.136   0.175  -0.281  1.00  0.00    -0.041 C 
HETATM    6  C   UNL     1      -2.134  -0.465  -1.008  1.00  0.00     0.008 C 
HETATM    7  C   UNL     1       0.117   0.796  -0.902  1.00  0.00     0.067 C 
HETATM    8  C   UNL     1       1.331   0.342  -0.052  1.00  0.00    -0.041 A 
HETATM    9  C   UNL     1       2.493  -0.237  -0.536  1.00  0.00     0.008 A 
HETATM   10  C   UNL     1       3.473  -0.655   0.369  1.00  0.00     0.001 A 
HETATM   11  C   UNL     1       3.295  -0.518   1.752  1.00  0.00     0.001 A 
HETATM   12  C   UNL     1       2.141   0.080   2.249  1.00  0.00     0.010 A 
HETATM   13  C   UNL     1       1.177   0.541   1.356  1.00  0.00    -0.026 A 
HETATM   14  C   UNL     1      -0.106   1.296   1.680  1.00  0.00     0.086 C 
HETATM   15  C   UNL     1      -0.037   2.619   0.825  1.00  0.00     0.121 C 
HETATM   16  C   UNL     1      -0.208   2.283  -0.674  1.00  0.00     0.107 C 
HETATM   17  C   UNL     1       0.705   3.197  -1.407  1.00  0.00     0.237 C 
HETATM   18  O   UNL     1       0.684   3.330  -2.625  1.00  0.00    -0.272 OA
HETATM   19  N   UNL     1       1.551   3.770  -0.497  1.00  0.00    -0.251 N 
HETATM   20  C   UNL     1       1.302   3.368   0.803  1.00  0.00     0.238 C 
HETATM   21  O   UNL     1       1.979   3.617   1.790  1.00  0.00    -0.272 OA
HETATM   22 BR   UNL     1      -0.352   1.754   3.545  1.00  0.00    -0.074 Br
ENDROOT
BRANCH  19  23
HETATM   23  C   UNL     1       2.596   4.638  -0.898  1.00  0.00     0.061 A 
HETATM   24  C   UNL     1       3.921   4.227  -0.692  1.00  0.00     0.031 A 
HETATM   25  C   UNL     1       4.986   4.996  -1.172  1.00  0.00     0.002 A 
HETATM   26  C   UNL     1       4.742   6.200  -1.832  1.00  0.00     0.001 A 
HETATM   27  C   UNL     1       3.429   6.625  -2.043  1.00  0.00     0.020 A 
HETATM   28  C   UNL     1       2.350   5.842  -1.600  1.00  0.00     0.066 A 
BRANCH  28  29
HETATM   29  C   UNL     1       0.948   6.285  -1.862  1.00  0.00     0.296 C 
HETATM   30  O   UNL     1      -0.012   5.987  -1.172  1.00  0.00    -0.259 OA
BRANCH  29  31
HETATM   31  O   UNL     1       0.885   6.939  -3.046  1.00  0.00    -0.310 OA
BRANCH  31  32
HETATM   32  C   UNL     1      -0.239   6.590  -3.883  1.00  0.00     0.263 C 
BRANCH  32  33
HETATM   33  C   UNL     1       0.350   5.701  -4.971  1.00  0.00     0.183 C 
HETATM   34  O   UNL     1       1.528   5.840  -5.320  1.00  0.00    -0.290 OA
BRANCH  33  35
HETATM   35  C   UNL     1      -0.447   4.629  -5.647  1.00  0.00     0.012 A 
HETATM   36  C   UNL     1      -1.825   4.423  -5.503  1.00  0.00     0.017 A 
HETATM   37  C   UNL     1      -2.444   3.330  -6.146  1.00  0.00     0.037 A 
HETATM   38  C   UNL     1      -1.678   2.448  -6.931  1.00  0.00     0.102 A 
HETATM   39  C   UNL     1      -0.318   2.675  -7.118  1.00  0.00     0.037 A 
HETATM   40  C   UNL     1       0.283   3.757  -6.481  1.00  0.00     0.017 A 
BRANCH  38  41
HETATM   41  N   UNL     1      -2.289   1.259  -7.537  1.00  0.00    -0.116 N 
HETATM   42  O   UNL     1      -3.498   1.077  -7.336  1.00  0.00    -0.532 OA
HETATM   43  O   UNL     1      -1.563   0.497  -8.191  1.00  0.00    -0.532 OA
ENDBRANCH  38  41
ENDBRANCH  33  35
ENDBRANCH  32  33
ENDBRANCH  31  32
ENDBRANCH  29  31
ENDBRANCH  28  29
ENDBRANCH  19  23
TORSDOF 7
