REMARK  6 active torsions:
REMARK  status: ('A' for Active; 'I' for Inactive)
REMARK    1  A    between atoms: C_5  and  N_8 
REMARK       I    between atoms: N_8  and  C_9 
REMARK    2  A    between atoms: C_9  and  C_11 
REMARK    3  A    between atoms: C_11  and  N_13 
REMARK    4  A    between atoms: C_22  and  C_23 
REMARK    5  A    between atoms: C_28  and  S_30 
REMARK    6  A    between atoms: S_30  and  N_33 
ROOT
HETATM    1  C   UNL     1       6.271  -1.629   6.773  1.00  0.00     0.048 C 
HETATM    2  C   UNL     1       6.891  -1.558   5.408  1.00  0.00    -0.062 A 
HETATM    3  C   UNL     1       6.156  -1.094   4.316  1.00  0.00     0.009 A 
HETATM    4  C   UNL     1       6.719  -1.071   3.034  1.00  0.00     0.030 A 
HETATM    5  C   UNL     1       8.024  -1.516   2.812  1.00  0.00     0.034 A 
HETATM    6  C   UNL     1       8.763  -1.978   3.909  1.00  0.00     0.030 A 
HETATM    7  C   UNL     1       8.205  -1.988   5.197  1.00  0.00     0.009 A 
ENDROOT
BRANCH   5   8
HETATM    8  N   UNL     1       8.621  -1.561   1.531  1.00  0.00    -0.325 N 
HETATM    9  C   UNL     1       8.140  -0.954   0.378  1.00  0.00     0.246 C 
HETATM   10  O   UNL     1       7.241  -0.110   0.356  1.00  0.00    -0.271 OA
HETATM   11  HN  UNL     1       9.502  -2.055   1.440  1.00  0.00     0.169 HD
BRANCH   9  12
HETATM   12  C   UNL     1       8.972  -1.221  -0.897  1.00  0.00     0.199 C 
HETATM   13  C   UNL     1      10.079  -0.177  -0.994  1.00  0.00     0.044 C 
BRANCH  12  14
HETATM   14  N   UNL     1       9.434  -2.618  -0.944  1.00  0.00    -0.243 N 
HETATM   15  C   UNL     1       8.485  -3.570  -1.298  1.00  0.00     0.269 C 
HETATM   16  O   UNL     1       7.319  -3.306  -1.579  1.00  0.00    -0.266 OA
HETATM   17  C   UNL     1       8.933  -4.979  -1.226  1.00  0.00     0.020 C 
HETATM   18  C   UNL     1       7.825  -6.000  -1.217  1.00  0.00     0.045 C 
HETATM   19  C   UNL     1      10.239  -5.286  -1.129  1.00  0.00    -0.017 C 
HETATM   20  C   UNL     1       8.330  -7.408  -1.507  1.00  0.00     0.005 C 
HETATM   21  C   UNL     1       9.547  -7.709  -0.643  1.00  0.00     0.005 C 
HETATM   22  C   UNL     1      10.681  -6.715  -0.929  1.00  0.00     0.042 C 
HETATM   23  C   UNL     1      11.190  -4.118  -1.116  1.00  0.00     0.065 C 
HETATM   24  N   UNL     1      10.793  -2.885  -0.950  1.00  0.00    -0.294 N 
HETATM   25  HN  UNL     1      11.471  -2.133  -0.827  1.00  0.00     0.187 HD
BRANCH  23  26
HETATM   26  C   UNL     1      12.676  -4.345  -1.300  1.00  0.00    -0.006 A 
HETATM   27  C   UNL     1      13.589  -3.479  -0.679  1.00  0.00     0.014 A 
HETATM   28  C   UNL     1      14.972  -3.622  -0.874  1.00  0.00     0.009 A 
HETATM   29  C   UNL     1      15.499  -4.637  -1.690  1.00  0.00    -0.039 A 
HETATM   30  C   UNL     1      16.987  -4.735  -1.871  1.00  0.00     0.050 C 
HETATM   31  C   UNL     1      14.584  -5.493  -2.326  1.00  0.00     0.086 A 
HETATM   32  C   UNL     1      13.195  -5.325  -2.154  1.00  0.00     0.039 A 
BRANCH  31  33
HETATM   33  S   UNL     1      15.125  -6.868  -3.342  1.00  0.00     0.259 S 
HETATM   34  O   UNL     1      16.192  -7.550  -2.643  1.00  0.00    -0.201 OA
HETATM   35  O   UNL     1      13.952  -7.592  -3.787  1.00  0.00    -0.201 OA
BRANCH  33  36
HETATM   36  N   UNL     1      15.808  -6.124  -4.678  1.00  0.00    -0.320 N 
HETATM   37  C   UNL     1      14.928  -5.715  -5.766  1.00  0.00     0.159 C 
HETATM   38  HN  UNL     1      16.708  -6.535  -4.922  1.00  0.00     0.171 HD
ENDBRANCH  33  36
ENDBRANCH  31  33
ENDBRANCH  23  26
ENDBRANCH  12  14
ENDBRANCH   9  12
ENDBRANCH   5   8
TORSDOF 6
