REMARK  9 active torsions:
REMARK  status: ('A' for Active; 'I' for Inactive)
REMARK    1  A    between atoms: N_19  and  C_20 
REMARK    2  A    between atoms: C_24  and  C_26 
REMARK    3  A    between atoms: C_26  and  O_28 
REMARK    4  A    between atoms: O_28  and  C_29 
REMARK    5  A    between atoms: C_29  and  C_30 
REMARK    6  A    between atoms: C_30  and  C_32 
REMARK    7  A    between atoms: C_35  and  O_38 
REMARK    8  A    between atoms: O_38  and  C_39 
REMARK    9  A    between atoms: C_39  and  C_41 
ROOT
HETATM    1  C   UNL     1      -4.724   1.154   0.170  1.00  0.00     0.001 A 
HETATM    2  C   UNL     1      -4.096  -0.089   0.185  1.00  0.00     0.001 A 
HETATM    3  C   UNL     1      -2.766  -0.222  -0.227  1.00  0.00     0.010 A 
HETATM    4  C   UNL     1      -2.054   0.899  -0.663  1.00  0.00    -0.025 A 
HETATM    5  C   UNL     1      -2.717   2.164  -0.720  1.00  0.00    -0.025 A 
HETATM    6  C   UNL     1      -4.040   2.278  -0.281  1.00  0.00     0.010 A 
HETATM    7  C   UNL     1      -1.833   3.290  -1.306  1.00  0.00     0.086 C 
HETATM    8  C   UNL     1      -1.301   2.797  -2.671  1.00  0.00    -0.025 A 
HETATM    9  C   UNL     1      -1.395   3.455  -3.897  1.00  0.00     0.010 A 
HETATM   10  C   UNL     1      -0.911   2.839  -5.052  1.00  0.00     0.001 A 
HETATM   11  C   UNL     1      -0.336   1.569  -4.994  1.00  0.00     0.001 A 
HETATM   12  C   UNL     1      -0.203   0.907  -3.774  1.00  0.00     0.010 A 
HETATM   13  C   UNL     1      -0.659   1.517  -2.605  1.00  0.00    -0.025 A 
HETATM   14  C   UNL     1      -0.587   0.954  -1.178  1.00  0.00     0.086 C 
HETATM   15  C   UNL     1       0.134   2.021  -0.290  1.00  0.00     0.122 A 
HETATM   16  C   UNL     1      -0.633   3.364  -0.329  1.00  0.00     0.122 A 
HETATM   17  C   UNL     1       0.395   4.370  -0.745  1.00  0.00     0.238 A 
HETATM   18  O   UNL     1       0.099   5.541  -0.944  1.00  0.00    -0.272 OA
HETATM   19  N   UNL     1       1.627   3.778  -0.872  1.00  0.00    -0.252 N 
HETATM   20  C   UNL     1       1.551   2.403  -0.708  1.00  0.00     0.238 A 
HETATM   21  O   UNL     1       2.458   1.590  -0.777  1.00  0.00    -0.272 OA
HETATM   22 BR   UNL     1       0.300  -0.767  -1.029  1.00  0.00    -0.074 Br
HETATM   23 BR   UNL     1      -2.819   4.971  -1.406  1.00  0.00    -0.074 Br
ENDROOT
BRANCH  19  24
HETATM   24  C   UNL     1       2.789   4.516  -1.289  1.00  0.00     0.046 A 
HETATM   25  C   UNL     1       2.809   5.925  -1.227  1.00  0.00     0.030 A 
HETATM   26  C   UNL     1       3.803   6.687  -1.840  1.00  0.00     0.003 A 
HETATM   27  C   UNL     1       4.838   6.050  -2.510  1.00  0.00     0.018 A 
HETATM   28  C   UNL     1       4.907   4.654  -2.507  1.00  0.00     0.041 A 
HETATM   29  C   UNL     1       3.905   3.895  -1.867  1.00  0.00     0.048 A 
BRANCH  28  30
HETATM   30  C   UNL     1       5.958   4.015  -3.345  1.00  0.00     0.293 C 
HETATM   31  O   UNL     1       6.671   4.629  -4.123  1.00  0.00    -0.259 OA
BRANCH  30  32
HETATM   32  O   UNL     1       5.930   2.667  -3.204  1.00  0.00    -0.310 OA
BRANCH  32  33
HETATM   33  C   UNL     1       6.304   1.946  -4.386  1.00  0.00     0.263 C 
BRANCH  33  34
HETATM   34  C   UNL     1       5.098   1.891  -5.322  1.00  0.00     0.183 C 
HETATM   35  O   UNL     1       4.011   2.384  -5.013  1.00  0.00    -0.290 OA
BRANCH  34  36
HETATM   36  C   UNL     1       5.221   1.224  -6.652  1.00  0.00     0.012 A 
HETATM   37  C   UNL     1       6.385   0.588  -7.095  1.00  0.00     0.018 A 
HETATM   38  C   UNL     1       6.425   0.016  -8.376  1.00  0.00     0.038 A 
HETATM   39  C   UNL     1       5.302   0.073  -9.207  1.00  0.00     0.079 A 
HETATM   40  C   UNL     1       4.140   0.703  -8.776  1.00  0.00     0.038 A 
HETATM   41  C   UNL     1       4.099   1.265  -7.499  1.00  0.00     0.018 A 
BRANCH  39  42
HETATM   42  O   UNL     1       5.461  -0.451 -10.511  1.00  0.00    -0.273 OA
BRANCH  42  43
HETATM   43  C   UNL     1       4.395  -0.960 -11.264  1.00  0.00     0.322 C 
HETATM   44  O   UNL     1       3.247  -1.111 -10.860  1.00  0.00    -0.257 OA
BRANCH  43  45
HETATM   45  C   UNL     1       4.844  -1.298 -12.597  1.00  0.00     0.150 A 
HETATM   46  C   UNL     1       4.152  -1.837 -13.669  1.00  0.00     0.045 A 
HETATM   47  C   UNL     1       5.076  -1.964 -14.733  1.00  0.00     0.027 A 
HETATM   48  C   UNL     1       6.275  -1.493 -14.256  1.00  0.00     0.143 A 
HETATM   49  O   UNL     1       6.148  -1.088 -12.964  1.00  0.00    -0.317 OA
ENDBRANCH  43  45
ENDBRANCH  42  43
ENDBRANCH  39  42
ENDBRANCH  34  36
ENDBRANCH  33  34
ENDBRANCH  32  33
ENDBRANCH  30  32
ENDBRANCH  28  30
ENDBRANCH  19  24
TORSDOF 9
