REMARK  9 active torsions:
REMARK  status: ('A' for Active; 'I' for Inactive)
REMARK    1  A    between atoms: C_7  and  C_19 
REMARK    2  A    between atoms: C_9  and  C_10 
REMARK    3  A    between atoms: C_19  and  O_21 
REMARK    4  A    between atoms: O_21  and  C_22 
REMARK    5  A    between atoms: C_22  and  C_23 
REMARK    6  A    between atoms: C_23  and  C_25 
REMARK    7  A    between atoms: C_28  and  O_31 
REMARK    8  A    between atoms: O_31  and  C_32 
REMARK    9  A    between atoms: C_32  and  C_34 
ROOT
HETATM    1  C   UNL     1      -1.908  -0.705   2.053  1.00  0.00     0.001 A 
HETATM    2  C   UNL     1      -1.889   0.674   1.935  1.00  0.00     0.002 A 
HETATM    3  C   UNL     1      -0.848   1.291   1.238  1.00  0.00     0.030 A 
HETATM    4  C   UNL     1       0.166   0.564   0.626  1.00  0.00     0.043 A 
HETATM    5  C   UNL     1       0.149  -0.842   0.714  1.00  0.00     0.007 A 
HETATM    6  C   UNL     1      -0.894  -1.455   1.460  1.00  0.00     0.015 A 
HETATM    7  C   UNL     1       1.185  -1.522   0.029  1.00  0.00     0.054 A 
HETATM    8  C   UNL     1       2.154  -0.802  -0.680  1.00  0.00     0.049 A 
HETATM    9  C   UNL     1       2.094   0.583  -0.699  1.00  0.00     0.043 A 
HETATM   10  N   UNL     1       1.110   1.247  -0.045  1.00  0.00    -0.355 N 
HETATM   11  HN  UNL     1       1.086   2.267  -0.062  1.00  0.00     0.166 HD
ENDROOT
BRANCH   7  12
HETATM   12  C   UNL     1       1.232  -3.010  -0.033  1.00  0.00     0.294 C 
HETATM   13  O   UNL     1       0.260  -3.743   0.030  1.00  0.00    -0.259 OA
BRANCH  12  14
HETATM   14  O   UNL     1       2.519  -3.438  -0.119  1.00  0.00    -0.310 OA
BRANCH  14  15
HETATM   15  C   UNL     1       2.656  -4.858  -0.196  1.00  0.00     0.263 C 
BRANCH  15  16
HETATM   16  C   UNL     1       2.363  -5.432  -1.584  1.00  0.00     0.183 C 
HETATM   17  O   UNL     1       2.146  -4.709  -2.558  1.00  0.00    -0.290 OA
BRANCH  16  18
HETATM   18  C   UNL     1       2.404  -6.919  -1.763  1.00  0.00     0.012 A 
HETATM   19  C   UNL     1       2.714  -7.789  -0.708  1.00  0.00     0.018 A 
HETATM   20  C   UNL     1       2.801  -9.166  -0.935  1.00  0.00     0.038 A 
HETATM   21  C   UNL     1       2.570  -9.682  -2.210  1.00  0.00     0.079 A 
HETATM   22  C   UNL     1       2.255  -8.834  -3.268  1.00  0.00     0.038 A 
HETATM   23  C   UNL     1       2.165  -7.455  -3.039  1.00  0.00     0.018 A 
BRANCH  21  24
HETATM   24  O   UNL     1       2.773 -11.073  -2.342  1.00  0.00    -0.273 OA
BRANCH  24  25
HETATM   25  C   UNL     1       2.128 -11.872  -3.290  1.00  0.00     0.322 C 
HETATM   26  O   UNL     1       1.278 -11.487  -4.085  1.00  0.00    -0.257 OA
BRANCH  25  27
HETATM   27  C   UNL     1       2.605 -13.233  -3.182  1.00  0.00     0.150 A 
HETATM   28  C   UNL     1       2.265 -14.369  -3.897  1.00  0.00     0.045 A 
HETATM   29  C   UNL     1       3.032 -15.435  -3.368  1.00  0.00     0.027 A 
HETATM   30  C   UNL     1       3.798 -14.891  -2.365  1.00  0.00     0.143 A 
HETATM   31  O   UNL     1       3.550 -13.562  -2.243  1.00  0.00    -0.317 OA
ENDBRANCH  25  27
ENDBRANCH  24  25
ENDBRANCH  21  24
ENDBRANCH  16  18
ENDBRANCH  15  16
ENDBRANCH  14  15
ENDBRANCH  12  14
ENDBRANCH   7  12
BRANCH   9  32
HETATM   32  C   UNL     1       3.031   1.421  -1.486  1.00  0.00    -0.009 A 
HETATM   33  C   UNL     1       2.631   2.679  -1.981  1.00  0.00     0.015 A 
HETATM   34  C   UNL     1       3.471   3.452  -2.793  1.00  0.00     0.024 A 
HETATM   35  C   UNL     1       4.739   2.983  -3.118  1.00  0.00     0.034 A 
HETATM   36  C   UNL     1       5.179   1.762  -2.620  1.00  0.00     0.024 A 
HETATM   37 CL   UNL     1       5.762   3.910  -4.143  1.00  0.00    -0.084 Cl
HETATM   38  C   UNL     1       4.335   0.993  -1.807  1.00  0.00     0.015 A 
ENDBRANCH   9  32
TORSDOF 9
