REMARK  2 active torsions:
REMARK  status: ('A' for Active; 'I' for Inactive)
REMARK    1  A    between atoms: N_9  and  C_10 
REMARK    2  A    between atoms: C_10  and  C_11 
ROOT
HETATM    1  C   UNL     1       1.854   1.176  -0.027  1.00  0.00     0.001 A 
HETATM    2  C   UNL     1       2.235  -0.182   0.016  1.00  0.00     0.001 A 
HETATM    3  C   UNL     1       1.273  -1.195   0.058  1.00  0.00     0.018 A 
HETATM    4  C   UNL     1      -0.052  -0.805   0.053  1.00  0.00     0.048 A 
HETATM    5  C   UNL     1      -0.430   0.525   0.005  1.00  0.00     0.048 A 
HETATM    6  C   UNL     1       0.503   1.544  -0.033  1.00  0.00     0.018 A 
HETATM    7  C   UNL     1      -1.893   0.568   0.005  1.00  0.00     0.262 A 
HETATM    8  O   UNL     1      -2.551   1.589  -0.030  1.00  0.00    -0.267 OA
HETATM    9  N   UNL     1      -2.317  -0.731   0.056  1.00  0.00    -0.276 N 
HETATM   10  C   UNL     1      -1.270  -1.609   0.097  1.00  0.00     0.262 A 
HETATM   11  O   UNL     1      -1.292  -2.823   0.168  1.00  0.00    -0.267 OA
ENDROOT
BRANCH   9  12
HETATM   12  C   UNL     1      -3.704  -1.142   0.045  1.00  0.00     0.175 C 
BRANCH  12  13
HETATM   13  C   UNL     1      -4.217  -1.327  -1.357  1.00  0.00    -0.024 A 
HETATM   14  C   UNL     1      -4.855  -0.289  -2.042  1.00  0.00     0.011 A 
HETATM   15  C   UNL     1      -5.268  -0.481  -3.357  1.00  0.00     0.018 A 
HETATM   16  C   UNL     1      -5.026  -1.709  -3.948  1.00  0.00     0.087 A 
HETATM   17  N   UNL     1      -4.418  -2.737  -3.319  1.00  0.00    -0.375 N 
HETATM   18  C   UNL     1      -4.025  -2.524  -2.042  1.00  0.00     0.096 A 
HETATM   19  HN  UNL     1      -4.262  -3.631  -3.784  1.00  0.00     0.164 HD
ENDBRANCH  12  13
ENDBRANCH   9  12
TORSDOF 2
