REMARK  6 active torsions:
REMARK  status: ('A' for Active; 'I' for Inactive)
REMARK    1  A    between atoms: C_7  and  N_8 
REMARK       I    between atoms: N_8  and  C_9 
REMARK    2  A    between atoms: C_9  and  C_11 
REMARK    3  A    between atoms: C_11  and  N_13 
REMARK    4  A    between atoms: C_22  and  C_23 
REMARK    5  A    between atoms: C_28  and  S_30 
REMARK    6  A    between atoms: S_30  and  N_33 
ROOT
HETATM    1  C   UNL     1      -1.251  -0.702   3.818  1.00  0.00     0.050 C 
HETATM    2  C   UNL     1       0.117  -1.229   4.162  1.00  0.00    -0.035 A 
HETATM    3  C   UNL     1       0.738  -0.717   5.322  1.00  0.00     0.009 A 
HETATM    4  C   UNL     1       2.012  -1.134   5.701  1.00  0.00     0.001 A 
HETATM    5  C   UNL     1       2.672  -2.086   4.941  1.00  0.00     0.002 A 
HETATM    6  C   UNL     1       2.064  -2.607   3.796  1.00  0.00     0.030 A 
HETATM    7  C   UNL     1       0.798  -2.177   3.369  1.00  0.00     0.040 A 
ENDROOT
BRANCH   7   8
HETATM    8  N   UNL     1       0.207  -2.681   2.175  1.00  0.00    -0.325 N 
HETATM    9  C   UNL     1       0.889  -3.288   1.127  1.00  0.00     0.246 C 
HETATM   10  O   UNL     1       2.114  -3.440   1.094  1.00  0.00    -0.271 OA
HETATM   11  HN  UNL     1      -0.759  -2.443   2.002  1.00  0.00     0.169 HD
BRANCH   9  12
HETATM   12  C   UNL     1       0.046  -3.813  -0.068  1.00  0.00     0.199 C 
HETATM   13  C   UNL     1       0.355  -5.304  -0.233  1.00  0.00     0.044 C 
BRANCH  12  14
HETATM   14  N   UNL     1      -1.395  -3.496  -0.039  1.00  0.00    -0.243 N 
HETATM   15  C   UNL     1      -1.763  -2.199  -0.370  1.00  0.00     0.269 C 
HETATM   16  O   UNL     1      -0.959  -1.298  -0.595  1.00  0.00    -0.266 OA
HETATM   17  C   UNL     1      -3.213  -1.903  -0.299  1.00  0.00     0.020 C 
HETATM   18  C   UNL     1      -3.568  -0.441  -0.254  1.00  0.00     0.045 C 
HETATM   19  C   UNL     1      -4.122  -2.896  -0.227  1.00  0.00    -0.017 C 
HETATM   20  C   UNL     1      -5.055  -0.184  -0.468  1.00  0.00     0.005 C 
HETATM   21  C   UNL     1      -5.875  -1.143   0.384  1.00  0.00     0.005 C 
HETATM   22  C   UNL     1      -5.584  -2.592  -0.015  1.00  0.00     0.042 C 
HETATM   23  C   UNL     1      -3.563  -4.293  -0.254  1.00  0.00     0.065 C 
HETATM   24  N   UNL     1      -2.294  -4.547  -0.101  1.00  0.00    -0.294 N 
HETATM   25  HN  UNL     1      -1.966  -5.510  -0.028  1.00  0.00     0.187 HD
BRANCH  23  26
HETATM   26  C   UNL     1      -4.487  -5.477  -0.449  1.00  0.00    -0.006 A 
HETATM   27  C   UNL     1      -4.149  -6.711   0.121  1.00  0.00     0.014 A 
HETATM   28  C   UNL     1      -4.972  -7.836  -0.047  1.00  0.00     0.009 A 
HETATM   29  C   UNL     1      -6.174  -7.764  -0.771  1.00  0.00    -0.039 A 
HETATM   30  C   UNL     1      -7.025  -8.996  -0.906  1.00  0.00     0.050 C 
HETATM   31  C   UNL     1      -6.507  -6.530  -1.353  1.00  0.00     0.086 A 
HETATM   32  C   UNL     1      -5.642  -5.422  -1.235  1.00  0.00     0.039 A 
BRANCH  31  33
HETATM   33  S   UNL     1      -8.075  -6.254  -2.172  1.00  0.00     0.259 S 
HETATM   34  O   UNL     1      -9.115  -6.820  -1.344  1.00  0.00    -0.201 OA
HETATM   35  O   UNL     1      -8.132  -4.872  -2.597  1.00  0.00    -0.201 OA
BRANCH  33  36
HETATM   36  N   UNL     1      -7.977  -7.209  -3.548  1.00  0.00    -0.320 N 
HETATM   37  C   UNL     1      -7.310  -6.662  -4.722  1.00  0.00     0.159 C 
HETATM   38  HN  UNL     1      -8.829  -7.752  -3.693  1.00  0.00     0.171 HD
ENDBRANCH  33  36
ENDBRANCH  31  33
ENDBRANCH  23  26
ENDBRANCH  12  14
ENDBRANCH   9  12
ENDBRANCH   7   8
TORSDOF 6
