REMARK  6 active torsions:
REMARK  status: ('A' for Active; 'I' for Inactive)
REMARK    1  A    between atoms: C_5  and  C_13 
REMARK    2  A    between atoms: C_7  and  S_8 
REMARK    3  A    between atoms: S_8  and  N_11 
REMARK    4  A    between atoms: N_22  and  C_23 
REMARK    5  A    between atoms: C_23  and  C_24 
REMARK       I    between atoms: C_24  and  N_26 
REMARK    6  A    between atoms: N_26  and  C_27 
ROOT
HETATM    1  C   UNL     1       0.850   0.193   0.006  1.00  0.00     0.050 C 
HETATM    2  C   UNL     1       2.350   0.129  -0.047  1.00  0.00    -0.039 C 
HETATM    3  C   UNL     1       3.071   1.253  -0.489  1.00  0.00     0.009 C 
HETATM    4  C   UNL     1       4.473   1.227  -0.615  1.00  0.00     0.014 C 
HETATM    5  C   UNL     1       5.207   0.091  -0.250  1.00  0.00    -0.006 C 
HETATM    6  C   UNL     1       4.492  -0.962   0.321  1.00  0.00     0.039 C 
HETATM    7  C   UNL     1       3.085  -1.001   0.322  1.00  0.00     0.086 C 
ENDROOT
BRANCH   7   8
HETATM    8  S   UNL     1       2.359  -2.578   0.754  1.00  0.00     0.259 S 
HETATM    9  O   UNL     1       2.914  -2.957   2.034  1.00  0.00    -0.201 OA
HETATM   10  O   UNL     1       0.939  -2.589   0.498  1.00  0.00    -0.201 OA
BRANCH   8  11
HETATM   11  N   UNL     1       3.071  -3.623  -0.374  1.00  0.00    -0.320 N 
HETATM   12  C   UNL     1       2.404  -3.803  -1.663  1.00  0.00     0.159 C 
HETATM   13  HN  UNL     1       3.414  -4.470   0.083  1.00  0.00     0.171 HD
ENDBRANCH   8  11
ENDBRANCH   7   8
BRANCH   5  14
HETATM   14  C   UNL     1       6.700   0.039  -0.536  1.00  0.00     0.065 C 
HETATM   15  C   UNL     1       7.370  -1.283  -0.835  1.00  0.00    -0.017 C 
HETATM   16  C   UNL     1       6.682  -2.621  -0.769  1.00  0.00     0.042 C 
HETATM   17  C   UNL     1       8.670  -1.228  -1.179  1.00  0.00     0.020 C 
HETATM   18  C   UNL     1       7.479  -3.798  -1.331  1.00  0.00     0.005 C 
HETATM   19  C   UNL     1       8.912  -3.717  -0.837  1.00  0.00     0.005 C 
HETATM   20  C   UNL     1       9.552  -2.436  -1.363  1.00  0.00     0.045 C 
HETATM   21  C   UNL     1       9.344   0.070  -1.399  1.00  0.00     0.269 C 
HETATM   22  O   UNL     1      10.459   0.107  -1.915  1.00  0.00    -0.266 OA
HETATM   23  N   UNL     1       8.685   1.181  -0.909  1.00  0.00    -0.248 N 
HETATM   24  N   UNL     1       7.347   1.173  -0.555  1.00  0.00    -0.294 N 
HETATM   25  HN  UNL     1       6.872   2.042  -0.312  1.00  0.00     0.187 HD
BRANCH  23  26
HETATM   26  C   UNL     1       9.319   2.483  -1.106  1.00  0.00     0.255 C 
BRANCH  26  27
HETATM   27  C   UNL     1      10.450   2.871  -0.135  1.00  0.00     0.242 C 
HETATM   28  O   UNL     1      10.993   3.970  -0.267  1.00  0.00    -0.271 OA
HETATM   29  N   UNL     1      10.803   1.927   0.816  1.00  0.00    -0.326 N 
HETATM   30  HN  UNL     1      10.399   1.008   0.701  1.00  0.00     0.169 HD
BRANCH  29  31
HETATM   31  C   UNL     1      11.793   2.066   1.817  1.00  0.00     0.035 A 
HETATM   32  C   UNL     1      12.340   3.297   2.186  1.00  0.00     0.032 A 
HETATM   33  C   UNL     1      13.333   3.379   3.169  1.00  0.00     0.044 A 
HETATM   34  C   UNL     1      13.780   2.213   3.781  1.00  0.00     0.116 A 
HETATM   35  C   UNL     1      13.244   0.979   3.443  1.00  0.00     0.044 A 
HETATM   36  F   UNL     1      14.743   2.284   4.711  1.00  0.00    -0.206 F 
HETATM   37  C   UNL     1      12.234   0.905   2.473  1.00  0.00     0.032 A 
ENDBRANCH  29  31
ENDBRANCH  26  27
ENDBRANCH  23  26
ENDBRANCH   5  14
TORSDOF 6
