REMARK  8 active torsions:
REMARK  status: ('A' for Active; 'I' for Inactive)
REMARK    1  A    between atoms: C_5  and  N_9 
REMARK       I    between atoms: N_9  and  C_10 
REMARK    2  A    between atoms: C_10  and  C_12 
REMARK    3  A    between atoms: C_12  and  C_13 
REMARK    4  A    between atoms: C_12  and  N_22 
REMARK    5  A    between atoms: C_13  and  C_14 
REMARK    6  A    between atoms: C_14  and  C_16 
REMARK    7  A    between atoms: C_25  and  C_26 
REMARK    8  A    between atoms: C_26  and  C_27 
ROOT
HETATM    1  C   UNL     1       2.488   1.936   4.041  1.00  0.00     0.048 C 
HETATM    2  C   UNL     1       3.728   1.901   3.199  1.00  0.00    -0.061 A 
HETATM    3  C   UNL     1       3.839   1.016   2.129  1.00  0.00     0.009 A 
HETATM    4  C   UNL     1       5.001   0.986   1.355  1.00  0.00     0.030 A 
HETATM    5  C   UNL     1       6.082   1.835   1.618  1.00  0.00     0.040 A 
HETATM    6  C   UNL     1       5.982   2.735   2.703  1.00  0.00    -0.035 A 
HETATM    7  C   UNL     1       7.036   3.740   3.090  1.00  0.00     0.050 C 
HETATM    8  C   UNL     1       4.792   2.765   3.466  1.00  0.00     0.015 A 
ENDROOT
BRANCH   5   9
HETATM    9  N   UNL     1       7.265   1.766   0.835  1.00  0.00    -0.325 N 
HETATM   10  C   UNL     1       7.377   1.240  -0.455  1.00  0.00     0.247 C 
HETATM   11  O   UNL     1       6.439   0.818  -1.130  1.00  0.00    -0.271 OA
HETATM   12  HN  UNL     1       8.078   2.247   1.197  1.00  0.00     0.169 HD
BRANCH  10  13
HETATM   13  C   UNL     1       8.795   1.265  -1.016  1.00  0.00     0.207 C 
BRANCH  13  14
HETATM   14  C   UNL     1       8.921   0.589  -2.396  1.00  0.00     0.121 C 
BRANCH  14  15
HETATM   15  C   UNL     1       8.721  -0.916  -2.323  1.00  0.00     0.162 C 
HETATM   16  O   UNL     1       8.597  -1.500  -1.247  1.00  0.00    -0.292 OA
BRANCH  15  17
HETATM   17  C   UNL     1       8.717  -1.717  -3.595  1.00  0.00     0.010 A 
HETATM   18  C   UNL     1       9.040  -1.164  -4.838  1.00  0.00     0.015 A 
HETATM   19  C   UNL     1       9.038  -1.953  -5.994  1.00  0.00     0.001 A 
HETATM   20  C   UNL     1       8.715  -3.308  -5.914  1.00  0.00     0.000 A 
HETATM   21  C   UNL     1       8.398  -3.873  -4.682  1.00  0.00     0.001 A 
HETATM   22  C   UNL     1       8.402  -3.083  -3.527  1.00  0.00     0.015 A 
ENDBRANCH  15  17
ENDBRANCH  14  15
ENDBRANCH  13  14
BRANCH  13  23
HETATM   23  N   UNL     1       9.394   2.612  -1.074  1.00  0.00    -0.282 N 
HETATM   24  C   UNL     1       8.862   3.883  -1.158  1.00  0.00     0.034 A 
HETATM   25  C   UNL     1       7.414   4.236  -1.162  1.00  0.00     0.070 C 
HETATM   26  C   UNL     1       9.944   4.765  -1.143  1.00  0.00    -0.006 A 
HETATM   27  C   UNL     1      11.077   3.920  -0.986  1.00  0.00     0.030 A 
HETATM   28  C   UNL     1      12.507   4.260  -0.778  1.00  0.00     0.070 C 
HETATM   29  N   UNL     1      10.737   2.633  -0.978  1.00  0.00    -0.302 N 
HETATM   30  HN  UNL     1      11.363   1.830  -0.913  1.00  0.00     0.187 HD
BRANCH  26  31
HETATM   31  C   UNL     1       9.901   6.262  -1.084  1.00  0.00     0.081 C 
BRANCH  31  32
HETATM   32  C   UNL     1       9.860   6.869  -2.471  1.00  0.00    -0.054 A 
HETATM   33  C   UNL     1       8.777   7.688  -2.844  1.00  0.00     0.007 A 
HETATM   34  C   UNL     1       8.809   8.439  -4.025  1.00  0.00     0.001 A 
HETATM   35  C   UNL     1       9.925   8.387  -4.853  1.00  0.00     0.000 A 
HETATM   36  C   UNL     1      10.993   7.557  -4.518  1.00  0.00     0.001 A 
HETATM   37  C   UNL     1      10.960   6.801  -3.339  1.00  0.00     0.007 A 
ENDBRANCH  31  32
ENDBRANCH  26  31
ENDBRANCH  13  23
ENDBRANCH  10  13
ENDBRANCH   5   9
TORSDOF 8
