REMARK  6 active torsions:
REMARK  status: ('A' for Active; 'I' for Inactive)
REMARK    1  A    between atoms: C_2  and  C_3 
REMARK    2  A    between atoms: C_2  and  N_17 
REMARK       I    between atoms: C_3  and  N_5 
REMARK    3  A    between atoms: N_5  and  C_6 
REMARK    4  A    between atoms: C_9  and  O_14 
REMARK    5  A    between atoms: C_11  and  O_12 
REMARK    6  A    between atoms: C_22  and  C_23 
ROOT
HETATM    1  C   UNL     1       1.016   0.113   0.025  1.00  0.00     0.044 C 
HETATM    2  C   UNL     1       2.530   0.025  -0.175  1.00  0.00     0.199 C 
ENDROOT
BRANCH   2   3
HETATM    3  C   UNL     1       3.271   0.307   1.154  1.00  0.00     0.246 C 
HETATM    4  O   UNL     1       2.695   0.261   2.242  1.00  0.00    -0.271 OA
HETATM    5  N   UNL     1       4.624   0.607   1.016  1.00  0.00    -0.323 N 
HETATM    6  HN  UNL     1       5.073   0.369   0.133  1.00  0.00     0.169 HD
BRANCH   5   7
HETATM    7  C   UNL     1       5.462   0.939   2.109  1.00  0.00     0.070 A 
HETATM    8  C   UNL     1       4.998   1.829   3.089  1.00  0.00     0.059 A 
HETATM    9  C   UNL     1       5.831   2.250   4.132  1.00  0.00     0.069 A 
HETATM   10  C   UNL     1       7.140   1.766   4.245  1.00  0.00     0.092 A 
HETATM   11 CL   UNL     1       5.205   3.413   5.252  1.00  0.00    -0.081 Cl
HETATM   12  C   UNL     1       7.598   0.871   3.276  1.00  0.00     0.077 A 
HETATM   13  C   UNL     1       6.780   0.468   2.206  1.00  0.00     0.097 A 
BRANCH  10  14
HETATM   14  O   UNL     1       7.891   2.224   5.296  1.00  0.00    -0.354 OA
HETATM   15  C   UNL     1       9.206   1.703   5.444  1.00  0.00     0.210 C 
ENDBRANCH  10  14
BRANCH  13  16
HETATM   16  O   UNL     1       7.422  -0.367   1.330  1.00  0.00    -0.354 OA
HETATM   17  C   UNL     1       6.692  -1.499   0.882  1.00  0.00     0.210 C 
ENDBRANCH  13  16
ENDBRANCH   5   7
ENDBRANCH   2   3
BRANCH   2  18
HETATM   18  N   UNL     1       2.965  -1.258  -0.760  1.00  0.00    -0.244 N 
HETATM   19  C   UNL     1       4.107  -1.278  -1.540  1.00  0.00     0.262 A 
HETATM   20  O   UNL     1       4.809  -0.293  -1.758  1.00  0.00    -0.267 OA
HETATM   21  C   UNL     1       4.541  -2.590  -2.054  1.00  0.00     0.078 A 
HETATM   22  C   UNL     1       3.821  -3.687  -1.806  1.00  0.00     0.037 A 
HETATM   23  C   UNL     1       2.563  -3.511  -1.045  1.00  0.00     0.058 A 
HETATM   24  N   UNL     1       2.173  -2.376  -0.549  1.00  0.00    -0.294 N 
HETATM   25  HN  UNL     1       1.305  -2.309  -0.017  1.00  0.00     0.187 HD
BRANCH  23  26
HETATM   26  C   UNL     1       1.683  -4.718  -0.939  1.00  0.00    -0.008 A 
HETATM   27  C   UNL     1       2.200  -6.020  -0.867  1.00  0.00     0.014 A 
HETATM   28  C   UNL     1       1.339  -7.122  -0.891  1.00  0.00     0.001 A 
HETATM   29  C   UNL     1      -0.039  -6.932  -0.969  1.00  0.00     0.000 A 
HETATM   30  C   UNL     1      -0.562  -5.639  -1.001  1.00  0.00     0.001 A 
HETATM   31  C   UNL     1       0.295  -4.534  -0.979  1.00  0.00     0.014 A 
ENDBRANCH  23  26
ENDBRANCH   2  18
TORSDOF 6
