REMARK  6 active torsions:
REMARK  status: ('A' for Active; 'I' for Inactive)
REMARK    1  A    between atoms: C_5  and  O_28 
REMARK    2  A    between atoms: C_6  and  N_8 
REMARK    3  A    between atoms: N_8  and  C_9 
REMARK    4  A    between atoms: C_12  and  C_13 
REMARK    5  A    between atoms: C_18  and  S_20 
REMARK    6  A    between atoms: S_20  and  N_23 
ROOT
HETATM    1  C   UNL     1       1.878   0.483   1.888  1.00  0.00     0.048 C 
HETATM    2  C   UNL     1       3.248   0.229   1.332  1.00  0.00    -0.060 A 
HETATM    3  C   UNL     1       4.265   1.176   1.427  1.00  0.00     0.009 A 
HETATM    4  C   UNL     1       5.527   0.913   0.887  1.00  0.00     0.039 A 
HETATM    5  C   UNL     1       5.785  -0.309   0.255  1.00  0.00     0.095 A 
HETATM    6  C   UNL     1       4.775  -1.296   0.180  1.00  0.00     0.068 A 
HETATM    7  C   UNL     1       3.518  -1.003   0.723  1.00  0.00     0.039 A 
ENDROOT
BRANCH   6   8
HETATM    8  N   UNL     1       5.114  -2.571  -0.328  1.00  0.00    -0.339 N 
HETATM    9  HN  UNL     1       5.944  -2.532  -0.907  1.00  0.00     0.167 HD
BRANCH   8  10
HETATM   10  C   UNL     1       4.421  -3.792  -0.335  1.00  0.00     0.120 A 
HETATM   11  C   UNL     1       5.110  -4.944  -0.689  1.00  0.00     0.052 A 
HETATM   12  C   UNL     1       4.485  -6.191  -0.596  1.00  0.00     0.035 A 
HETATM   13  C   UNL     1       3.172  -6.272  -0.152  1.00  0.00     0.058 A 
HETATM   14  N   UNL     1       2.523  -5.145   0.193  1.00  0.00    -0.298 N 
HETATM   15  N   UNL     1       3.155  -3.914   0.104  1.00  0.00    -0.285 N 
HETATM   16  HN  UNL     1       1.559  -5.197   0.522  1.00  0.00     0.187 HD
HETATM   17  HN  UNL     1       2.644  -3.075   0.380  1.00  0.00     0.188 HD
BRANCH  13  18
HETATM   18  C   UNL     1       2.427  -7.536  -0.016  1.00  0.00    -0.007 A 
HETATM   19  C   UNL     1       1.431  -7.697   0.961  1.00  0.00     0.014 A 
HETATM   20  C   UNL     1       0.750  -8.911   1.122  1.00  0.00     0.009 A 
HETATM   21  C   UNL     1       1.036 -10.015   0.307  1.00  0.00    -0.039 A 
HETATM   22  C   UNL     1       0.313 -11.307   0.561  1.00  0.00     0.050 C 
HETATM   23  C   UNL     1       2.002  -9.854  -0.701  1.00  0.00     0.081 A 
HETATM   24  C   UNL     1       2.681  -8.634  -0.854  1.00  0.00     0.039 A 
BRANCH  23  25
HETATM   25  S   UNL     1       2.441 -11.170  -1.812  1.00  0.00     0.239 S 
HETATM   26  O   UNL     1       3.294 -10.645  -2.855  1.00  0.00    -0.206 OA
HETATM   27  O   UNL     1       2.803 -12.337  -1.044  1.00  0.00    -0.206 OA
BRANCH  25  28
HETATM   28  N   UNL     1       0.993 -11.526  -2.581  1.00  0.00    -0.225 NA
HETATM   29  HN1 UNL     1       1.071 -11.319  -3.577  1.00  0.00     0.136 HD
HETATM   30  HN2 UNL     1       0.726 -12.490  -2.381  1.00  0.00     0.136 HD
ENDBRANCH  25  28
ENDBRANCH  23  25
ENDBRANCH  13  18
ENDBRANCH   8  10
ENDBRANCH   6   8
BRANCH   5  31
HETATM   31  O   UNL     1       6.990  -0.654  -0.319  1.00  0.00    -0.354 OA
HETATM   32  C   UNL     1       8.029   0.317  -0.264  1.00  0.00     0.210 C 
ENDBRANCH   5  31
TORSDOF 6
