REMARK  6 active torsions:
REMARK  status: ('A' for Active; 'I' for Inactive)
REMARK    1  A    between atoms: C_6  and  N_8 
REMARK       I    between atoms: N_8  and  C_9 
REMARK    2  A    between atoms: C_9  and  C_11 
REMARK    3  A    between atoms: C_11  and  N_13 
REMARK    4  A    between atoms: C_22  and  C_23 
REMARK    5  A    between atoms: C_28  and  S_30 
REMARK    6  A    between atoms: S_30  and  N_33 
ROOT
HETATM    1  C   UNL     1       3.962  -5.076   6.711  1.00  0.00     0.048 C 
HETATM    2  C   UNL     1       4.684  -4.400   5.582  1.00  0.00    -0.060 A 
HETATM    3  C   UNL     1       5.315  -3.168   5.786  1.00  0.00     0.007 A 
HETATM    4  C   UNL     1       5.946  -2.526   4.728  1.00  0.00     0.003 A 
HETATM    5  C   UNL     1       5.931  -3.096   3.452  1.00  0.00     0.029 A 
HETATM    6  C   UNL     1       5.296  -4.319   3.216  1.00  0.00     0.035 A 
HETATM    7  C   UNL     1       4.708  -4.985   4.301  1.00  0.00     0.036 A 
ENDROOT
BRANCH   6   8
HETATM    8  N   UNL     1       5.197  -4.909   1.932  1.00  0.00    -0.325 N 
HETATM    9  C   UNL     1       5.361  -4.250   0.720  1.00  0.00     0.246 C 
HETATM   10  O   UNL     1       5.713  -3.076   0.596  1.00  0.00    -0.271 OA
HETATM   11  HN  UNL     1       4.818  -5.848   1.875  1.00  0.00     0.169 HD
BRANCH   9  12
HETATM   12  C   UNL     1       5.253  -5.144  -0.537  1.00  0.00     0.199 C 
HETATM   13  C   UNL     1       6.659  -5.629  -0.890  1.00  0.00     0.044 C 
BRANCH  12  14
HETATM   14  N   UNL     1       4.259  -6.226  -0.392  1.00  0.00    -0.243 N 
HETATM   15  C   UNL     1       2.919  -5.874  -0.484  1.00  0.00     0.269 C 
HETATM   16  O   UNL     1       2.523  -4.721  -0.633  1.00  0.00    -0.266 OA
HETATM   17  C   UNL     1       1.941  -6.979  -0.320  1.00  0.00     0.020 C 
HETATM   18  C   UNL     1       0.519  -6.554  -0.068  1.00  0.00     0.045 C 
HETATM   19  C   UNL     1       2.336  -8.266  -0.371  1.00  0.00    -0.017 C 
HETATM   20  C   UNL     1      -0.493  -7.685  -0.231  1.00  0.00     0.005 C 
HETATM   21  C   UNL     1       0.014  -8.951   0.442  1.00  0.00     0.005 C 
HETATM   22  C   UNL     1       1.347  -9.386  -0.167  1.00  0.00     0.042 C 
HETATM   23  C   UNL     1       3.816  -8.491  -0.513  1.00  0.00     0.065 C 
HETATM   24  N   UNL     1       4.694  -7.533  -0.465  1.00  0.00    -0.294 N 
HETATM   25  HN  UNL     1       5.692  -7.745  -0.481  1.00  0.00     0.187 HD
BRANCH  23  26
HETATM   26  C   UNL     1       4.336  -9.900  -0.615  1.00  0.00    -0.006 C 
HETATM   27  C   UNL     1       3.685 -10.909  -1.329  1.00  0.00     0.014 C 
HETATM   28  C   UNL     1       4.092 -12.243  -1.213  1.00  0.00     0.009 C 
HETATM   29  C   UNL     1       5.193 -12.593  -0.421  1.00  0.00    -0.039 C 
HETATM   30  C   UNL     1       5.533 -14.050  -0.250  1.00  0.00     0.050 C 
HETATM   31  C   UNL     1       5.909 -11.560   0.215  1.00  0.00     0.081 C 
HETATM   32  C   UNL     1       5.500 -10.222   0.093  1.00  0.00     0.039 C 
BRANCH  31  33
HETATM   33  S   UNL     1       7.262 -11.954   1.296  1.00  0.00     0.239 S 
HETATM   34  O   UNL     1       6.706 -12.481   2.520  1.00  0.00    -0.206 OA
HETATM   35  O   UNL     1       8.287 -12.632   0.540  1.00  0.00    -0.206 OA
BRANCH  33  36
HETATM   36  N   UNL     1       7.935 -10.473   1.713  1.00  0.00    -0.225 NA
HETATM   37  HN1 UNL     1       7.827 -10.318   2.717  1.00  0.00     0.136 HD
HETATM   38  HN2 UNL     1       8.905 -10.441   1.398  1.00  0.00     0.136 HD
ENDBRANCH  33  36
ENDBRANCH  31  33
ENDBRANCH  23  26
ENDBRANCH  12  14
ENDBRANCH   9  12
ENDBRANCH   6   8
TORSDOF 6
