REMARK  7 active torsions:
REMARK  status: ('A' for Active; 'I' for Inactive)
REMARK    1  A    between atoms: N_19  and  C_20 
REMARK    2  A    between atoms: C_25  and  C_26 
REMARK    3  A    between atoms: C_26  and  O_28 
REMARK    4  A    between atoms: O_28  and  C_29 
REMARK    5  A    between atoms: C_29  and  C_30 
REMARK    6  A    between atoms: C_30  and  C_32 
REMARK    7  A    between atoms: C_36  and  N_38 
ROOT
HETATM    1  C   UNL     1      -3.280  -0.926  -0.239  1.00  0.00     0.001 C 
HETATM    2  C   UNL     1      -3.301  -0.861   1.159  1.00  0.00     0.001 C 
HETATM    3  C   UNL     1      -2.295  -0.189   1.868  1.00  0.00     0.010 C 
HETATM    4  C   UNL     1      -1.254   0.418   1.169  1.00  0.00    -0.026 C 
HETATM    5  C   UNL     1      -1.174   0.207  -0.241  1.00  0.00    -0.041 C 
HETATM    6  C   UNL     1      -2.204  -0.405  -0.950  1.00  0.00     0.008 C 
HETATM    7  C   UNL     1       0.070   0.827  -0.887  1.00  0.00     0.067 C 
HETATM    8  C   UNL     1       1.298   0.343  -0.073  1.00  0.00    -0.041 A 
HETATM    9  C   UNL     1       2.420  -0.285  -0.595  1.00  0.00     0.008 A 
HETATM   10  C   UNL     1       3.411  -0.755   0.280  1.00  0.00     0.001 A 
HETATM   11  C   UNL     1       3.269  -0.621   1.666  1.00  0.00     0.001 A 
HETATM   12  C   UNL     1       2.153   0.014   2.202  1.00  0.00     0.010 A 
HETATM   13  C   UNL     1       1.185   0.523   1.338  1.00  0.00    -0.026 A 
HETATM   14  C   UNL     1      -0.080   1.287   1.708  1.00  0.00     0.086 C 
HETATM   15  C   UNL     1      -0.032   2.622   0.873  1.00  0.00     0.121 C 
HETATM   16  C   UNL     1      -0.234   2.315  -0.629  1.00  0.00     0.107 C 
HETATM   17  C   UNL     1       0.664   3.258  -1.361  1.00  0.00     0.237 C 
HETATM   18  O   UNL     1       0.680   3.363  -2.577  1.00  0.00    -0.272 OA
HETATM   19  N   UNL     1       1.466   3.881  -0.448  1.00  0.00    -0.251 N 
HETATM   20  C   UNL     1       1.294   3.389   0.834  1.00  0.00     0.238 C 
HETATM   21  O   UNL     1       2.023   3.581   1.797  1.00  0.00    -0.272 OA
HETATM   22 BR   UNL     1      -0.268   1.717   3.587  1.00  0.00    -0.074 Br
ENDROOT
BRANCH  19  23
HETATM   23  C   UNL     1       2.524   4.716  -0.872  1.00  0.00     0.061 A 
HETATM   24  C   UNL     1       3.849   4.256  -0.735  1.00  0.00     0.031 A 
HETATM   25  C   UNL     1       4.927   4.985  -1.253  1.00  0.00     0.002 A 
HETATM   26  C   UNL     1       4.699   6.190  -1.906  1.00  0.00     0.001 A 
HETATM   27  C   UNL     1       3.393   6.661  -2.053  1.00  0.00     0.020 A 
HETATM   28  C   UNL     1       2.292   5.935  -1.551  1.00  0.00     0.066 A 
BRANCH  28  29
HETATM   29  C   UNL     1       0.961   6.576  -1.782  1.00  0.00     0.296 C 
HETATM   30  O   UNL     1       0.748   7.292  -2.752  1.00  0.00    -0.259 OA
BRANCH  29  31
HETATM   31  O   UNL     1       0.101   6.409  -0.748  1.00  0.00    -0.310 OA
BRANCH  31  32
HETATM   32  C   UNL     1      -1.136   7.167  -0.817  1.00  0.00     0.263 C 
BRANCH  32  33
HETATM   33  C   UNL     1      -2.327   6.215  -0.807  1.00  0.00     0.183 C 
HETATM   34  O   UNL     1      -2.222   5.099  -0.287  1.00  0.00    -0.290 OA
BRANCH  33  35
HETATM   35  C   UNL     1      -3.673   6.591  -1.386  1.00  0.00     0.014 A 
HETATM   36  C   UNL     1      -3.939   7.765  -2.117  1.00  0.00     0.015 A 
HETATM   37  C   UNL     1      -5.226   7.983  -2.657  1.00  0.00     0.003 A 
HETATM   38  C   UNL     1      -6.255   7.056  -2.467  1.00  0.00     0.036 A 
HETATM   39  C   UNL     1      -5.993   5.901  -1.725  1.00  0.00     0.103 A 
HETATM   40  C   UNL     1      -4.721   5.674  -1.190  1.00  0.00     0.051 A 
BRANCH  39  41
HETATM   41  N   UNL     1      -7.056   4.906  -1.520  1.00  0.00    -0.116 N 
HETATM   42  O   UNL     1      -8.173   5.149  -1.993  1.00  0.00    -0.532 OA
HETATM   43  O   UNL     1      -6.767   3.877  -0.891  1.00  0.00    -0.532 OA
ENDBRANCH  39  41
ENDBRANCH  33  35
ENDBRANCH  32  33
ENDBRANCH  31  32
ENDBRANCH  29  31
ENDBRANCH  28  29
ENDBRANCH  19  23
TORSDOF 7
