REMARK  2 active torsions:
REMARK  status: ('A' for Active; 'I' for Inactive)
REMARK    1  A    between atoms: C_2  and  C_3 
REMARK    2  A    between atoms: C_6  and  O_9 
ROOT
HETATM    1  C   UNL     1       2.827   0.266  -1.301  1.00  0.00     0.010 C 
HETATM    2  C   UNL     1       2.426  -0.131   0.111  1.00  0.00     0.034 C 
ENDROOT
BRANCH   2   3
HETATM    3  C   UNL     1       2.958  -1.490   0.487  1.00  0.00    -0.058 A 
HETATM    4  C   UNL     1       4.218  -1.620   1.091  1.00  0.00     0.010 A 
HETATM    5  C   UNL     1       4.718  -2.880   1.426  1.00  0.00     0.037 A 
HETATM    6  C   UNL     1       3.960  -4.013   1.151  1.00  0.00     0.065 A 
HETATM    7  C   UNL     1       2.712  -3.905   0.551  1.00  0.00     0.037 A 
HETATM    8  C   UNL     1       2.212  -2.645   0.216  1.00  0.00     0.010 A 
BRANCH   6   9
HETATM    9  O   UNL     1       4.413  -5.263   1.454  1.00  0.00    -0.361 OA
HETATM   10  H   UNL     1       5.306  -5.184   1.826  1.00  0.00     0.217 HD
ENDBRANCH   6   9
ENDBRANCH   2   3
TORSDOF 2
