REMARK  4 active torsions:
REMARK  status: ('A' for Active; 'I' for Inactive)
REMARK    1  A    between atoms: O_2  and  C_3 
REMARK    2  A    between atoms: C_6  and  C_9 
REMARK    3  A    between atoms: C_11  and  C_20 
REMARK    4  A    between atoms: C_20  and  O_22 
ROOT
HETATM    1  C   UNL     1       2.370   1.439   1.756  1.00  0.00     0.210 C 
HETATM    2  O   UNL     1       2.566   0.688   0.560  1.00  0.00    -0.356 OA
ENDROOT
BRANCH   2   3
HETATM    3  C   UNL     1       3.074   1.412  -0.483  1.00  0.00     0.068 A 
HETATM    4  C   UNL     1       3.974   2.467  -0.350  1.00  0.00     0.037 A 
HETATM    5  C   UNL     1       4.378   3.190  -1.477  1.00  0.00     0.016 A 
HETATM    6  C   UNL     1       3.903   2.869  -2.761  1.00  0.00    -0.009 A 
HETATM    7  C   UNL     1       3.053   1.754  -2.878  1.00  0.00     0.016 A 
HETATM    8  C   UNL     1       2.648   1.031  -1.753  1.00  0.00     0.037 A 
BRANCH   6   9
HETATM    9  C   UNL     1       4.210   3.729  -3.917  1.00  0.00     0.044 A 
HETATM   10  C   UNL     1       4.358   3.243  -5.204  1.00  0.00     0.049 A 
HETATM   11  C   UNL     1       4.494   4.153  -6.258  1.00  0.00     0.052 A 
HETATM   12  C   UNL     1       4.435   5.551  -6.011  1.00  0.00     0.007 A 
HETATM   13  C   UNL     1       4.459   6.577  -6.994  1.00  0.00     0.015 A 
HETATM   14  C   UNL     1       4.320   5.936  -4.662  1.00  0.00     0.044 A 
HETATM   15  C   UNL     1       4.343   7.924  -6.648  1.00  0.00     0.001 A 
HETATM   16  C   UNL     1       4.231   8.279  -5.312  1.00  0.00     0.002 A 
HETATM   17  C   UNL     1       4.229   7.283  -4.337  1.00  0.00     0.030 A 
HETATM   18  N   UNL     1       4.241   5.054  -3.655  1.00  0.00    -0.355 N 
HETATM   19  HN  UNL     1       4.204   5.384  -2.690  1.00  0.00     0.166 HD
BRANCH  11  20
HETATM   20  C   UNL     1       4.586   3.602  -7.640  1.00  0.00     0.177 C 
HETATM   21  O   UNL     1       4.047   4.102  -8.609  1.00  0.00    -0.646 OA
BRANCH  20  22
HETATM   22  O   UNL     1       5.322   2.470  -7.727  1.00  0.00    -0.773 OA
HETATM   23  H   UNL     1       5.828   2.218  -6.935  1.00  0.00     0.167 HD
ENDBRANCH  20  22
ENDBRANCH  11  20
ENDBRANCH   6   9
ENDBRANCH   2   3
TORSDOF 4
