REMARK  6 active torsions:
REMARK  status: ('A' for Active; 'I' for Inactive)
REMARK    1  A    between atoms: C_6  and  N_10 
REMARK       I    between atoms: N_10  and  C_11 
REMARK    2  A    between atoms: C_11  and  C_13 
REMARK    3  A    between atoms: C_13  and  N_14 
REMARK    4  A    between atoms: C_23  and  N_26 
REMARK    5  A    between atoms: N_26  and  C_27 
REMARK       I    between atoms: N_26  and  C_35 
REMARK    6  A    between atoms: C_27  and  C_28 
ROOT
HETATM    1  C   UNL     1       8.998   4.412   6.045  1.00  0.00     0.048 C 
HETATM    2  C   UNL     1       9.129   3.379   4.966  1.00  0.00    -0.061 A 
HETATM    3  C   UNL     1       8.472   2.148   5.043  1.00  0.00     0.015 A 
HETATM    4  C   UNL     1       8.603   1.180   4.027  1.00  0.00    -0.034 A 
HETATM    5  C   UNL     1       7.951  -0.161   4.249  1.00  0.00     0.050 C 
HETATM    6  C   UNL     1       9.396   1.460   2.891  1.00  0.00     0.046 A 
HETATM    7  C   UNL     1      10.085   2.691   2.813  1.00  0.00    -0.034 A 
HETATM    8  C   UNL     1      10.924   3.131   1.644  1.00  0.00     0.050 C 
HETATM    9  C   UNL     1       9.924   3.635   3.849  1.00  0.00     0.015 A 
ENDROOT
BRANCH   6  10
HETATM   10  N   UNL     1       9.582   0.489   1.874  1.00  0.00    -0.325 N 
HETATM   11  C   UNL     1       8.534  -0.042   1.132  1.00  0.00     0.240 C 
HETATM   12  O   UNL     1       7.346   0.252   1.268  1.00  0.00    -0.271 OA
HETATM   13  HN  UNL     1      10.485   0.477   1.404  1.00  0.00     0.169 HD
BRANCH  11  14
HETATM   14  C   UNL     1       8.974  -0.938  -0.032  1.00  0.00     0.235 C 
BRANCH  14  15
HETATM   15  N   UNL     1       9.606  -2.207   0.323  1.00  0.00    -0.300 N 
HETATM   16  C   UNL     1       8.858  -3.421   0.396  1.00  0.00     0.065 A 
HETATM   17  C   UNL     1       7.462  -3.467   0.256  1.00  0.00     0.032 A 
HETATM   18  C   UNL     1       9.553  -4.630   0.579  1.00  0.00     0.061 A 
HETATM   19  C   UNL     1       6.791  -4.694   0.185  1.00  0.00     0.002 A 
HETATM   20  C   UNL     1       7.491  -5.886   0.325  1.00  0.00     0.002 A 
HETATM   21  C   UNL     1       8.862  -5.848   0.557  1.00  0.00     0.032 A 
HETATM   22  N   UNL     1      10.947  -4.717   0.641  1.00  0.00    -0.336 N 
HETATM   23  C   UNL     1      11.649  -3.634   0.487  1.00  0.00     0.180 C 
HETATM   24  HN  UNL     1      11.405  -5.614   0.804  1.00  0.00     0.168 HD
HETATM   25  C   UNL     1      10.995  -2.230   0.480  1.00  0.00     0.293 C 
HETATM   26  O   UNL     1      11.662  -1.220   0.690  1.00  0.00    -0.264 OA
BRANCH  23  27
HETATM   27  N   UNL     1      13.037  -3.762   0.304  1.00  0.00    -0.295 N 
HETATM   28  C   UNL     1      13.679  -2.986  -0.648  1.00  0.00     0.221 C 
HETATM   29  O   UNL     1      13.077  -2.207  -1.397  1.00  0.00    -0.273 OA
HETATM   30  C   UNL     1      15.174  -3.161  -0.868  1.00  0.00     0.117 C 
BRANCH  27  31
HETATM   31  C   UNL     1      13.675  -4.951   0.880  1.00  0.00     0.172 C 
BRANCH  31  32
HETATM   32  C   UNL     1      14.406  -4.708   2.190  1.00  0.00    -0.040 A 
HETATM   33  C   UNL     1      14.408  -3.470   2.855  1.00  0.00     0.012 A 
HETATM   34  C   UNL     1      14.993  -3.344   4.118  1.00  0.00     0.043 A 
HETATM   35  C   UNL     1      15.583  -4.448   4.718  1.00  0.00     0.116 A 
HETATM   36  C   UNL     1      15.632  -5.672   4.066  1.00  0.00     0.043 A 
HETATM   37  F   UNL     1      16.101  -4.334   5.948  1.00  0.00    -0.206 F 
HETATM   38  C   UNL     1      15.052  -5.800   2.802  1.00  0.00     0.012 A 
ENDBRANCH  31  32
ENDBRANCH  27  31
ENDBRANCH  23  27
ENDBRANCH  14  15
ENDBRANCH  11  14
ENDBRANCH   6  10
TORSDOF 6
