REMARK  2 active torsions:
REMARK  status: ('A' for Active; 'I' for Inactive)
REMARK    1  A    between atoms: N_19  and  C_20 
REMARK    2  A    between atoms: C_20  and  C_21 
ROOT
HETATM    1  C   UNL     1      -3.251  -1.084  -0.548  1.00  0.00     0.001 A 
HETATM    2  C   UNL     1      -3.213  -0.935   0.848  1.00  0.00     0.001 A 
HETATM    3  C   UNL     1      -2.161  -0.255   1.475  1.00  0.00     0.008 A 
HETATM    4  C   UNL     1      -1.150   0.274   0.686  1.00  0.00    -0.042 A 
HETATM    5  C   UNL     1      -1.183   0.096  -0.729  1.00  0.00    -0.042 A 
HETATM    6  C   UNL     1      -2.232  -0.570  -1.347  1.00  0.00     0.008 A 
HETATM    7  C   UNL     1       0.022   0.702  -1.448  1.00  0.00     0.066 C 
HETATM    8  C   UNL     1       1.273   0.127  -0.779  1.00  0.00    -0.042 A 
HETATM    9  C   UNL     1       2.291  -0.557  -1.428  1.00  0.00     0.008 A 
HETATM   10  C   UNL     1       3.325  -1.101  -0.663  1.00  0.00     0.001 A 
HETATM   11  C   UNL     1       3.333  -0.967   0.733  1.00  0.00     0.001 A 
HETATM   12  C   UNL     1       2.319  -0.266   1.389  1.00  0.00     0.008 A 
HETATM   13  C   UNL     1       1.299   0.293   0.630  1.00  0.00    -0.042 A 
HETATM   14  C   UNL     1       0.090   1.049   1.176  1.00  0.00     0.066 C 
HETATM   15  C   UNL     1       0.018   2.418   0.438  1.00  0.00     0.105 C 
HETATM   16  C   UNL     1      -0.073   2.199  -1.094  1.00  0.00     0.105 C 
HETATM   17  C   UNL     1       1.065   2.986  -1.655  1.00  0.00     0.232 C 
HETATM   18  O   UNL     1       1.444   2.911  -2.815  1.00  0.00    -0.272 OA
HETATM   19  N   UNL     1       1.589   3.773  -0.668  1.00  0.00    -0.283 N 
HETATM   20  C   UNL     1       1.210   3.342   0.579  1.00  0.00     0.232 C 
HETATM   21  O   UNL     1       1.720   3.655   1.646  1.00  0.00    -0.272 OA
ENDROOT
BRANCH  19  22
HETATM   22  C   UNL     1       2.695   4.682  -0.924  1.00  0.00     0.174 C 
BRANCH  22  23
HETATM   23  C   UNL     1       2.266   5.960  -1.613  1.00  0.00    -0.024 A 
HETATM   24  C   UNL     1       2.092   7.156  -0.912  1.00  0.00     0.011 A 
HETATM   25  C   UNL     1       1.724   8.319  -1.593  1.00  0.00     0.018 A 
HETATM   26  C   UNL     1       1.526   8.249  -2.961  1.00  0.00     0.087 A 
HETATM   27  N   UNL     1       1.673   7.115  -3.673  1.00  0.00    -0.375 N 
HETATM   28  C   UNL     1       2.042   6.004  -2.990  1.00  0.00     0.096 A 
HETATM   29  HN  UNL     1       1.514   7.093  -4.680  1.00  0.00     0.164 HD
ENDBRANCH  22  23
ENDBRANCH  19  22
TORSDOF 2
