REMARK  5 active torsions:
REMARK  status: ('A' for Active; 'I' for Inactive)
REMARK    1  A    between atoms: C_2  and  C_3 
REMARK    2  A    between atoms: C_3  and  C_4 
REMARK    3  A    between atoms: C_3  and  N_16 
REMARK       I    between atoms: C_4  and  N_6 
REMARK    4  A    between atoms: N_6  and  C_7 
REMARK    5  A    between atoms: C_21  and  C_22 
ROOT
HETATM    1  C   UNL     1       0.927  -0.023   0.026  1.00  0.00     0.007 C 
HETATM    2  C   UNL     1       2.452  -0.017  -0.018  1.00  0.00     0.032 C 
ENDROOT
BRANCH   2   3
HETATM    3  C   UNL     1       3.046  -1.129  -0.906  1.00  0.00     0.203 C 
BRANCH   3   4
HETATM    4  C   UNL     1       2.589  -0.984  -2.380  1.00  0.00     0.247 C 
HETATM    5  O   UNL     1       2.124   0.063  -2.828  1.00  0.00    -0.271 OA
HETATM    6  N   UNL     1       2.763  -2.136  -3.145  1.00  0.00    -0.325 N 
HETATM    7  HN  UNL     1       3.458  -2.801  -2.807  1.00  0.00     0.169 HD
BRANCH   6   8
HETATM    8  C   UNL     1       2.400  -2.221  -4.504  1.00  0.00     0.037 A 
HETATM    9  C   UNL     1       1.168  -1.718  -4.969  1.00  0.00     0.032 A 
HETATM   10  C   UNL     1       0.836  -1.781  -6.327  1.00  0.00     0.042 A 
HETATM   11  C   UNL     1       1.772  -2.311  -7.188  1.00  0.00     0.105 A 
HETATM   12  C   UNL     1       2.967  -2.816  -6.733  1.00  0.00     0.107 A 
HETATM   13  O   UNL     1       1.655  -2.390  -8.540  1.00  0.00    -0.323 OA
HETATM   14  C   UNL     1       3.295  -2.824  -5.393  1.00  0.00     0.069 A 
HETATM   15  O   UNL     1       3.762  -3.255  -7.747  1.00  0.00    -0.323 OA
HETATM   16  C   UNL     1       2.953  -2.909  -8.892  1.00  0.00     0.352 A 
ENDBRANCH   6   8
ENDBRANCH   3   4
BRANCH   3  17
HETATM   17  N   UNL     1       4.528  -1.188  -0.835  1.00  0.00    -0.243 N 
HETATM   18  C   UNL     1       5.165  -2.380  -1.153  1.00  0.00     0.262 C 
HETATM   19  O   UNL     1       4.584  -3.397  -1.533  1.00  0.00    -0.267 OA
HETATM   20  C   UNL     1       6.634  -2.378  -1.118  1.00  0.00     0.078 C 
HETATM   21  C   UNL     1       7.302  -1.297  -0.719  1.00  0.00     0.037 C 
HETATM   22  C   UNL     1       6.505  -0.144  -0.243  1.00  0.00     0.058 C 
HETATM   23  N   UNL     1       5.209  -0.082  -0.336  1.00  0.00    -0.294 N 
HETATM   24  HN  UNL     1       4.704   0.757  -0.050  1.00  0.00     0.187 HD
BRANCH  22  25
HETATM   25  C   UNL     1       7.280   0.986   0.367  1.00  0.00    -0.008 A 
HETATM   26  C   UNL     1       6.777   2.290   0.297  1.00  0.00     0.014 A 
HETATM   27  C   UNL     1       7.501   3.351   0.850  1.00  0.00     0.001 A 
HETATM   28  C   UNL     1       8.724   3.120   1.482  1.00  0.00     0.000 A 
HETATM   29  C   UNL     1       9.220   1.823   1.577  1.00  0.00     0.001 A 
HETATM   30  C   UNL     1       8.497   0.759   1.032  1.00  0.00     0.014 A 
ENDBRANCH  22  25
ENDBRANCH   3  17
ENDBRANCH   2   3
TORSDOF 5
