REMARK  4 active torsions:
REMARK  status: ('A' for Active; 'I' for Inactive)
REMARK    1  A    between atoms: C_7  and  C_9 
REMARK    2  A    between atoms: N_18  and  C_19 
REMARK    3  A    between atoms: C_19  and  C_20 
REMARK       I    between atoms: C_20  and  N_22 
REMARK    4  A    between atoms: N_22  and  C_23 
ROOT
HETATM    1  C   UNL     1       1.559   0.174   1.346  1.00  0.00     0.048 C 
HETATM    2  C   UNL     1       2.867   0.157   0.606  1.00  0.00    -0.061 C 
HETATM    3  C   UNL     1       3.309   1.267  -0.096  1.00  0.00     0.007 C 
HETATM    4  C   UNL     1       4.489   1.183  -0.836  1.00  0.00     0.008 C 
HETATM    5  C   UNL     1       5.196  -0.033  -0.970  1.00  0.00    -0.049 C 
HETATM    6  C   UNL     1       6.443   0.004  -1.812  1.00  0.00     0.049 C 
HETATM    7  C   UNL     1       4.712  -1.196  -0.315  1.00  0.00    -0.001 C 
HETATM    8  C   UNL     1       3.624  -1.023   0.552  1.00  0.00     0.021 C 
ENDROOT
BRANCH   7   9
HETATM    9  C   UNL     1       5.324  -2.586  -0.539  1.00  0.00     0.066 C 
HETATM   10  C   UNL     1       4.475  -3.837  -0.403  1.00  0.00    -0.017 C 
HETATM   11  C   UNL     1       2.972  -3.822  -0.242  1.00  0.00     0.042 C 
HETATM   12  C   UNL     1       5.125  -5.015  -0.511  1.00  0.00     0.020 C 
HETATM   13  C   UNL     1       2.273  -5.164  -0.479  1.00  0.00     0.005 C 
HETATM   14  C   UNL     1       3.052  -6.283   0.191  1.00  0.00     0.005 C 
HETATM   15  C   UNL     1       4.453  -6.360  -0.399  1.00  0.00     0.045 C 
HETATM   16  C   UNL     1       6.576  -5.069  -0.818  1.00  0.00     0.269 C 
HETATM   17  O   UNL     1       7.167  -6.146  -0.889  1.00  0.00    -0.266 OA
HETATM   18  N   UNL     1       7.180  -3.864  -1.102  1.00  0.00    -0.248 N 
HETATM   19  N   UNL     1       6.580  -2.642  -0.884  1.00  0.00    -0.294 N 
HETATM   20  HN  UNL     1       7.118  -1.782  -0.993  1.00  0.00     0.187 HD
BRANCH  18  21
HETATM   21  C   UNL     1       8.603  -3.848  -1.442  1.00  0.00     0.255 C 
BRANCH  21  22
HETATM   22  C   UNL     1       8.941  -4.221  -2.894  1.00  0.00     0.242 C 
HETATM   23  O   UNL     1       9.822  -3.603  -3.500  1.00  0.00    -0.271 OA
HETATM   24  N   UNL     1       8.380  -5.393  -3.380  1.00  0.00    -0.323 N 
HETATM   25  HN  UNL     1       8.086  -6.078  -2.680  1.00  0.00     0.169 HD
BRANCH  24  26
HETATM   26  C   UNL     1       8.632  -5.889  -4.686  1.00  0.00     0.076 A 
HETATM   27  C   UNL     1       8.750  -5.043  -5.795  1.00  0.00     0.074 A 
HETATM   28  C   UNL     1       9.003  -5.584  -7.056  1.00  0.00     0.118 A 
HETATM   29  C   UNL     1       9.166  -6.953  -7.237  1.00  0.00     0.045 A 
HETATM   30  F   UNL     1       9.086  -4.771  -8.118  1.00  0.00    -0.206 F 
HETATM   31  C   UNL     1       9.049  -7.803  -6.138  1.00  0.00     0.047 A 
HETATM   32  C   UNL     1       8.758  -7.269  -4.881  1.00  0.00     0.143 A 
HETATM   33  F   UNL     1       8.661  -8.102  -3.833  1.00  0.00    -0.204 F 
ENDBRANCH  24  26
ENDBRANCH  21  22
ENDBRANCH  18  21
ENDBRANCH   7   9
TORSDOF 4
