REMARK  5 active torsions:
REMARK  status: ('A' for Active; 'I' for Inactive)
REMARK    1  A    between atoms: C_2  and  C_3 
REMARK    2  A    between atoms: C_3  and  C_4 
REMARK    3  A    between atoms: C_3  and  N_17 
REMARK       I    between atoms: C_4  and  N_6 
REMARK    4  A    between atoms: N_6  and  C_7 
REMARK    5  A    between atoms: C_26  and  C_27 
ROOT
HETATM    1  C   UNL     1       0.986  -0.216   0.234  1.00  0.00     0.007 C 
HETATM    2  C   UNL     1       2.510  -0.203   0.120  1.00  0.00     0.032 C 
ENDROOT
BRANCH   2   3
HETATM    3  C   UNL     1       3.052  -0.870  -1.158  1.00  0.00     0.203 C 
BRANCH   3   4
HETATM    4  C   UNL     1       2.590  -0.187  -2.462  1.00  0.00     0.247 C 
HETATM    5  O   UNL     1       1.616   0.562  -2.517  1.00  0.00    -0.271 OA
HETATM    6  N   UNL     1       3.287  -0.619  -3.583  1.00  0.00    -0.325 N 
HETATM    7  HN  UNL     1       4.249  -0.874  -3.390  1.00  0.00     0.169 HD
BRANCH   6   8
HETATM    8  C   UNL     1       2.975  -0.174  -4.878  1.00  0.00     0.037 A 
HETATM    9  C   UNL     1       1.654  -0.089  -5.335  1.00  0.00     0.032 A 
HETATM   10  C   UNL     1       1.383   0.395  -6.616  1.00  0.00     0.042 A 
HETATM   11  C   UNL     1       2.431   0.823  -7.425  1.00  0.00     0.102 A 
HETATM   12  C   UNL     1       3.752   0.716  -6.975  1.00  0.00     0.104 A 
HETATM   13  O   UNL     1       2.094   1.335  -8.651  1.00  0.00    -0.346 OA
HETATM   14  C   UNL     1       4.027   0.197  -5.713  1.00  0.00     0.069 A 
HETATM   15  O   UNL     1       4.834   1.133  -7.706  1.00  0.00    -0.346 OA
HETATM   16  C   UNL     1       4.489   1.328  -9.080  1.00  0.00     0.202 C 
HETATM   17  C   UNL     1       3.176   2.082  -9.217  1.00  0.00     0.202 C 
ENDBRANCH   6   8
ENDBRANCH   3   4
BRANCH   3  18
HETATM   18  N   UNL     1       4.528  -1.005  -1.127  1.00  0.00    -0.243 N 
HETATM   19  C   UNL     1       5.100  -2.269  -1.082  1.00  0.00     0.269 A 
HETATM   20  O   UNL     1       4.447  -3.312  -1.075  1.00  0.00    -0.266 OA
HETATM   21  C   UNL     1       6.580  -2.332  -1.044  1.00  0.00     0.020 A 
HETATM   22  C   UNL     1       7.169  -3.723  -0.983  1.00  0.00     0.045 C 
HETATM   23  C   UNL     1       7.328  -1.213  -1.062  1.00  0.00    -0.017 A 
HETATM   24  C   UNL     1       8.668  -3.756  -1.260  1.00  0.00     0.005 C 
HETATM   25  C   UNL     1       9.365  -2.654  -0.477  1.00  0.00     0.005 C 
HETATM   26  C   UNL     1       8.828  -1.288  -0.912  1.00  0.00     0.042 C 
HETATM   27  C   UNL     1       6.574   0.083  -1.184  1.00  0.00     0.065 A 
HETATM   28  N   UNL     1       5.271   0.153  -1.198  1.00  0.00    -0.294 N 
HETATM   29  HN  UNL     1       4.806   1.059  -1.261  1.00  0.00     0.187 HD
BRANCH  27  30
HETATM   30  C   UNL     1       7.330   1.383  -1.289  1.00  0.00    -0.007 A 
HETATM   31  C   UNL     1       8.505   1.514  -2.036  1.00  0.00     0.014 A 
HETATM   32  C   UNL     1       9.222   2.714  -2.054  1.00  0.00     0.007 A 
HETATM   33  C   UNL     1       8.734   3.840  -1.392  1.00  0.00    -0.062 A 
HETATM   34  C   UNL     1       9.490   5.136  -1.437  1.00  0.00     0.048 C 
HETATM   35  C   UNL     1       7.503   3.750  -0.732  1.00  0.00     0.007 A 
HETATM   36  C   UNL     1       6.812   2.529  -0.671  1.00  0.00     0.014 A 
ENDBRANCH  27  30
ENDBRANCH   3  18
ENDBRANCH   2   3
TORSDOF 5
