REMARK  6 active torsions:
REMARK  status: ('A' for Active; 'I' for Inactive)
REMARK    1  A    between atoms: C_7  and  N_8 
REMARK       I    between atoms: N_8  and  C_9 
REMARK    2  A    between atoms: C_9  and  C_11 
REMARK    3  A    between atoms: C_11  and  N_13 
REMARK    4  A    between atoms: C_22  and  C_23 
REMARK    5  A    between atoms: C_28  and  S_30 
REMARK    6  A    between atoms: S_30  and  N_33 
ROOT
HETATM    1  C   UNL     1      -2.072  -5.570   4.074  1.00  0.00     0.050 C 
HETATM    2  C   UNL     1      -0.762  -6.304   4.009  1.00  0.00    -0.035 A 
HETATM    3  C   UNL     1      -0.412  -7.131   5.097  1.00  0.00     0.009 A 
HETATM    4  C   UNL     1       0.802  -7.815   5.125  1.00  0.00     0.001 A 
HETATM    5  C   UNL     1       1.673  -7.704   4.053  1.00  0.00     0.002 A 
HETATM    6  C   UNL     1       1.336  -6.896   2.966  1.00  0.00     0.030 A 
HETATM    7  C   UNL     1       0.136  -6.169   2.931  1.00  0.00     0.040 A 
ENDROOT
BRANCH   7   8
HETATM    8  N   UNL     1      -0.174  -5.316   1.841  1.00  0.00    -0.325 N 
HETATM    9  C   UNL     1       0.728  -4.822   0.916  1.00  0.00     0.246 C 
HETATM   10  O   UNL     1       1.946  -5.019   0.941  1.00  0.00    -0.271 OA
HETATM   11  HN  UNL     1      -1.125  -4.973   1.740  1.00  0.00     0.169 HD
BRANCH   9  12
HETATM   12  C   UNL     1       0.145  -3.930  -0.194  1.00  0.00     0.199 C 
HETATM   13  C   UNL     1       0.545  -4.495  -1.559  1.00  0.00     0.044 C 
BRANCH  12  14
HETATM   14  N   UNL     1      -1.293  -3.616  -0.136  1.00  0.00    -0.243 N 
HETATM   15  C   UNL     1      -1.671  -2.309  -0.424  1.00  0.00     0.269 C 
HETATM   16  O   UNL     1      -0.885  -1.400  -0.681  1.00  0.00    -0.266 OA
HETATM   17  C   UNL     1      -3.124  -2.019  -0.335  1.00  0.00     0.020 C 
HETATM   18  C   UNL     1      -3.491  -0.556  -0.299  1.00  0.00     0.045 C 
HETATM   19  C   UNL     1      -4.023  -3.016  -0.268  1.00  0.00    -0.017 C 
HETATM   20  C   UNL     1      -4.980  -0.308  -0.529  1.00  0.00     0.005 C 
HETATM   21  C   UNL     1      -5.804  -1.267   0.317  1.00  0.00     0.005 C 
HETATM   22  C   UNL     1      -5.492  -2.717  -0.075  1.00  0.00     0.042 C 
HETATM   23  C   UNL     1      -3.456  -4.411  -0.306  1.00  0.00     0.065 C 
HETATM   24  N   UNL     1      -2.185  -4.670  -0.175  1.00  0.00    -0.294 N 
HETATM   25  HN  UNL     1      -1.856  -5.633  -0.103  1.00  0.00     0.187 HD
BRANCH  23  26
HETATM   26  C   UNL     1      -4.377  -5.590  -0.495  1.00  0.00    -0.006 A 
HETATM   27  C   UNL     1      -4.043  -6.832   0.056  1.00  0.00     0.014 A 
HETATM   28  C   UNL     1      -4.876  -7.947  -0.131  1.00  0.00     0.009 A 
HETATM   29  C   UNL     1      -6.084  -7.846  -0.843  1.00  0.00    -0.039 A 
HETATM   30  C   UNL     1      -6.935  -9.071  -1.028  1.00  0.00     0.050 C 
HETATM   31  C   UNL     1      -6.415  -6.597  -1.390  1.00  0.00     0.081 A 
HETATM   32  C   UNL     1      -5.529  -5.513  -1.278  1.00  0.00     0.039 A 
BRANCH  31  33
HETATM   33  S   UNL     1      -7.957  -6.287  -2.220  1.00  0.00     0.239 S 
HETATM   34  O   UNL     1      -8.093  -4.867  -2.437  1.00  0.00    -0.206 OA
HETATM   35  O   UNL     1      -8.130  -7.252  -3.276  1.00  0.00    -0.206 OA
BRANCH  33  36
HETATM   36  N   UNL     1      -9.105  -6.642  -1.045  1.00  0.00    -0.225 NA
HETATM   37  HN1 UNL     1      -9.627  -5.797  -0.807  1.00  0.00     0.136 HD
HETATM   38  HN2 UNL     1      -9.701  -7.405  -1.367  1.00  0.00     0.136 HD
ENDBRANCH  33  36
ENDBRANCH  31  33
ENDBRANCH  23  26
ENDBRANCH  12  14
ENDBRANCH   9  12
ENDBRANCH   7   8
TORSDOF 6
