REMARK  7 active torsions:
REMARK  status: ('A' for Active; 'I' for Inactive)
REMARK    1  A    between atoms: C_2  and  C_3 
REMARK    2  A    between atoms: C_8  and  N_9 
REMARK       I    between atoms: N_9  and  C_10 
REMARK    3  A    between atoms: C_10  and  C_12 
REMARK    4  A    between atoms: C_12  and  N_13 
REMARK    5  A    between atoms: C_22  and  C_23 
REMARK    6  A    between atoms: C_28  and  S_30 
REMARK    7  A    between atoms: S_30  and  N_33 
ROOT
HETATM    1  C   UNL     1      -3.552  -2.535   6.023  1.00  0.00     0.010 C 
HETATM    2  C   UNL     1      -3.994  -1.461   5.037  1.00  0.00     0.036 C 
ENDROOT
BRANCH   2   3
HETATM    3  C   UNL     1      -4.011  -2.016   3.632  1.00  0.00    -0.032 A 
HETATM    4  C   UNL     1      -5.223  -2.590   3.190  1.00  0.00     0.009 A 
HETATM    5  C   UNL     1      -5.300  -3.265   1.977  1.00  0.00     0.001 A 
HETATM    6  C   UNL     1      -4.169  -3.367   1.181  1.00  0.00     0.002 A 
HETATM    7  C   UNL     1      -2.966  -2.787   1.594  1.00  0.00     0.030 A 
HETATM    8  C   UNL     1      -2.858  -2.113   2.821  1.00  0.00     0.041 A 
BRANCH   8   9
HETATM    9  N   UNL     1      -1.630  -1.540   3.247  1.00  0.00    -0.325 N 
HETATM   10  C   UNL     1      -0.370  -1.851   2.765  1.00  0.00     0.242 C 
HETATM   11  O   UNL     1      -0.122  -2.774   1.989  1.00  0.00    -0.271 OA
HETATM   12  HN  UNL     1      -1.638  -0.914   4.043  1.00  0.00     0.169 HD
BRANCH  10  13
HETATM   13  C   UNL     1       0.780  -1.127   3.473  1.00  0.00     0.255 C 
BRANCH  13  14
HETATM   14  N   UNL     1       0.555   0.288   3.768  1.00  0.00    -0.248 N 
HETATM   15  C   UNL     1       0.988   1.209   2.829  1.00  0.00     0.269 A 
HETATM   16  O   UNL     1       1.441   0.902   1.729  1.00  0.00    -0.266 OA
HETATM   17  C   UNL     1       0.920   2.635   3.226  1.00  0.00     0.020 A 
HETATM   18  C   UNL     1       1.385   3.609   2.169  1.00  0.00     0.045 C 
HETATM   19  C   UNL     1       0.485   3.003   4.445  1.00  0.00    -0.017 A 
HETATM   20  C   UNL     1       0.890   5.032   2.402  1.00  0.00     0.005 C 
HETATM   21  C   UNL     1       1.148   5.434   3.835  1.00  0.00     0.005 C 
HETATM   22  C   UNL     1       0.493   4.465   4.820  1.00  0.00     0.042 C 
HETATM   23  C   UNL     1      -0.028   1.887   5.340  1.00  0.00     0.065 A 
HETATM   24  N   UNL     1       0.015   0.626   4.993  1.00  0.00    -0.294 N 
HETATM   25  HN  UNL     1      -0.345  -0.096   5.618  1.00  0.00     0.187 HD
BRANCH  23  26
HETATM   26  C   UNL     1      -0.714   2.205   6.667  1.00  0.00    -0.006 C 
HETATM   27  C   UNL     1      -1.670   1.318   7.178  1.00  0.00     0.014 C 
HETATM   28  C   UNL     1      -2.421   1.632   8.328  1.00  0.00     0.009 C 
HETATM   29  C   UNL     1      -2.280   2.868   8.979  1.00  0.00    -0.039 C 
HETATM   30  C   UNL     1      -3.133   3.185  10.174  1.00  0.00     0.050 C 
HETATM   31  C   UNL     1      -1.312   3.746   8.483  1.00  0.00     0.086 C 
HETATM   32  C   UNL     1      -0.483   3.357   7.416  1.00  0.00     0.039 C 
BRANCH  31  33
HETATM   33  S   UNL     1      -1.082   5.406   9.108  1.00  0.00     0.259 S 
HETATM   34  O   UNL     1      -0.996   5.339  10.546  1.00  0.00    -0.201 OA
HETATM   35  O   UNL     1      -0.061   6.054   8.316  1.00  0.00    -0.201 OA
BRANCH  33  36
HETATM   36  N   UNL     1      -2.544   6.165   8.741  1.00  0.00    -0.320 N 
HETATM   37  C   UNL     1      -2.711   6.769   7.420  1.00  0.00     0.159 C 
HETATM   38  HN  UNL     1      -2.900   6.690   9.540  1.00  0.00     0.171 HD
ENDBRANCH  33  36
ENDBRANCH  31  33
ENDBRANCH  23  26
ENDBRANCH  13  14
ENDBRANCH  10  13
ENDBRANCH   8   9
ENDBRANCH   2   3
TORSDOF 7
