REMARK  5 active torsions:
REMARK  status: ('A' for Active; 'I' for Inactive)
REMARK    1  A    between atoms: C_7  and  C_8 
REMARK    2  A    between atoms: C_8  and  N_9 
REMARK       I    between atoms: N_9  and  C_10 
REMARK    3  A    between atoms: N_9  and  C_13 
REMARK    4  A    between atoms: N_16  and  C_17 
REMARK    5  A    between atoms: C_17  and  C_19 
REMARK       I    between atoms: C_19  and  N_21 
ROOT
HETATM    1  C   UNL     1      -0.542  -0.258   2.005  1.00  0.00     0.049 C 
HETATM    2  C   UNL     1      -0.867   0.356   0.674  1.00  0.00    -0.054 A 
HETATM    3  C   UNL     1      -1.763   1.447   0.657  1.00  0.00     0.007 A 
HETATM    4  C   UNL     1      -2.183   2.033  -0.538  1.00  0.00     0.001 A 
HETATM    5  C   UNL     1      -1.730   1.525  -1.743  1.00  0.00     0.001 A 
HETATM    6  C   UNL     1      -0.802   0.487  -1.741  1.00  0.00     0.009 A 
HETATM    7  C   UNL     1      -0.327  -0.101  -0.543  1.00  0.00    -0.034 A 
ENDROOT
BRANCH   7   8
HETATM    8  C   UNL     1       0.852  -1.058  -0.709  1.00  0.00     0.172 C 
BRANCH   8   9
HETATM    9  N   UNL     1       0.967  -2.255   0.133  1.00  0.00    -0.295 N 
HETATM   10  C   UNL     1       2.114  -2.291   0.945  1.00  0.00     0.221 C 
HETATM   11  O   UNL     1       3.004  -1.436   0.890  1.00  0.00    -0.273 OA
HETATM   12  C   UNL     1       2.290  -3.430   1.923  1.00  0.00     0.117 C 
BRANCH   9  13
HETATM   13  C   UNL     1       0.196  -3.396  -0.168  1.00  0.00     0.180 C 
HETATM   14  C   UNL     1      -1.136  -3.217  -0.914  1.00  0.00     0.293 C 
HETATM   15  O   UNL     1      -1.259  -2.432  -1.843  1.00  0.00    -0.264 OA
HETATM   16  N   UNL     1      -2.152  -4.049  -0.429  1.00  0.00    -0.296 N 
HETATM   17  C   UNL     1      -1.729  -5.412  -0.272  1.00  0.00     0.065 A 
HETATM   18  C   UNL     1      -2.567  -6.510  -0.486  1.00  0.00     0.032 A 
HETATM   19  C   UNL     1      -0.348  -5.637  -0.044  1.00  0.00     0.061 A 
HETATM   20  C   UNL     1      -2.029  -7.804  -0.542  1.00  0.00     0.002 A 
HETATM   21  C   UNL     1      -0.669  -8.017  -0.326  1.00  0.00     0.002 A 
HETATM   22  C   UNL     1       0.162  -6.934  -0.056  1.00  0.00     0.032 A 
HETATM   23  N   UNL     1       0.542  -4.581   0.216  1.00  0.00    -0.336 N 
HETATM   24  HN  UNL     1       1.430  -4.744   0.691  1.00  0.00     0.168 HD
BRANCH  16  25
HETATM   25  C   UNL     1      -3.561  -3.643  -0.663  1.00  0.00     0.182 C 
HETATM   26  C   UNL     1      -3.703  -2.146  -0.321  1.00  0.00     0.043 C 
BRANCH  25  27
HETATM   27  C   UNL     1      -3.999  -3.983  -2.110  1.00  0.00     0.247 C 
HETATM   28  O   UNL     1      -3.229  -4.634  -2.827  1.00  0.00    -0.271 OA
HETATM   29  N   UNL     1      -5.256  -3.597  -2.549  1.00  0.00    -0.315 N 
HETATM   30  C   UNL     1      -6.442  -3.163  -1.777  1.00  0.00     0.137 C 
HETATM   31  C   UNL     1      -5.623  -3.597  -3.914  1.00  0.00     0.043 A 
HETATM   32  C   UNL     1      -7.483  -2.633  -2.775  1.00  0.00     0.061 C 
HETATM   33  C   UNL     1      -6.872  -3.003  -4.084  1.00  0.00    -0.030 A 
HETATM   34  C   UNL     1      -7.377  -2.751  -5.351  1.00  0.00     0.009 A 
HETATM   35  C   UNL     1      -6.624  -3.146  -6.459  1.00  0.00     0.001 A 
HETATM   36  C   UNL     1      -5.397  -3.795  -6.290  1.00  0.00     0.002 A 
HETATM   37  C   UNL     1      -4.888  -4.018  -5.011  1.00  0.00     0.030 A 
ENDBRANCH  25  27
ENDBRANCH  16  25
ENDBRANCH   9  13
ENDBRANCH   8   9
ENDBRANCH   7   8
TORSDOF 5
