REMARK  6 active torsions:
REMARK  status: ('A' for Active; 'I' for Inactive)
REMARK    1  A    between atoms: C_6  and  N_8 
REMARK       I    between atoms: N_8  and  C_9 
REMARK    2  A    between atoms: C_9  and  C_11 
REMARK    3  A    between atoms: C_11  and  N_13 
REMARK    4  A    between atoms: C_22  and  C_23 
REMARK    5  A    between atoms: C_28  and  S_30 
REMARK    6  A    between atoms: S_30  and  N_33 
ROOT
HETATM    1  C   UNL     1       3.978  -4.894   6.754  1.00  0.00     0.048 C 
HETATM    2  C   UNL     1       4.701  -4.243   5.607  1.00  0.00    -0.060 A 
HETATM    3  C   UNL     1       5.331  -3.011   5.780  1.00  0.00     0.007 A 
HETATM    4  C   UNL     1       5.967  -2.399   4.705  1.00  0.00     0.003 A 
HETATM    5  C   UNL     1       5.959  -3.004   3.446  1.00  0.00     0.029 A 
HETATM    6  C   UNL     1       5.327  -4.235   3.246  1.00  0.00     0.035 A 
HETATM    7  C   UNL     1       4.734  -4.869   4.347  1.00  0.00     0.036 A 
ENDROOT
BRANCH   6   8
HETATM    8  N   UNL     1       5.235  -4.866   1.983  1.00  0.00    -0.325 N 
HETATM    9  C   UNL     1       5.416  -4.254   0.751  1.00  0.00     0.246 C 
HETATM   10  O   UNL     1       5.789  -3.091   0.585  1.00  0.00    -0.271 OA
HETATM   11  HN  UNL     1       4.855  -5.806   1.955  1.00  0.00     0.169 HD
BRANCH   9  12
HETATM   12  C   UNL     1       5.294  -5.189  -0.469  1.00  0.00     0.199 C 
HETATM   13  C   UNL     1       6.696  -5.679  -0.828  1.00  0.00     0.044 C 
BRANCH  12  14
HETATM   14  N   UNL     1       4.302  -6.262  -0.268  1.00  0.00    -0.243 N 
HETATM   15  C   UNL     1       2.963  -5.916  -0.390  1.00  0.00     0.269 C 
HETATM   16  O   UNL     1       2.567  -4.769  -0.576  1.00  0.00    -0.266 OA
HETATM   17  C   UNL     1       1.987  -7.024  -0.225  1.00  0.00     0.020 C 
HETATM   18  C   UNL     1       0.558  -6.592  -0.012  1.00  0.00     0.045 C 
HETATM   19  C   UNL     1       2.384  -8.309  -0.261  1.00  0.00    -0.017 C 
HETATM   20  C   UNL     1      -0.450  -7.724  -0.180  1.00  0.00     0.005 C 
HETATM   21  C   UNL     1       0.046  -8.990   0.503  1.00  0.00     0.005 C 
HETATM   22  C   UNL     1       1.390  -9.431  -0.092  1.00  0.00     0.042 C 
HETATM   23  C   UNL     1       3.865  -8.529  -0.378  1.00  0.00     0.065 C 
HETATM   24  N   UNL     1       4.739  -7.566  -0.314  1.00  0.00    -0.294 N 
HETATM   25  HN  UNL     1       5.737  -7.776  -0.298  1.00  0.00     0.187 HD
BRANCH  23  26
HETATM   26  C   UNL     1       4.419  -9.912  -0.600  1.00  0.00    -0.006 A 
HETATM   27  C   UNL     1       5.666 -10.247  -0.053  1.00  0.00     0.014 A 
HETATM   28  C   UNL     1       6.279 -11.470  -0.368  1.00  0.00     0.009 A 
HETATM   29  C   UNL     1       5.678 -12.391  -1.245  1.00  0.00    -0.039 A 
HETATM   30  C   UNL     1       6.409 -13.663  -1.579  1.00  0.00     0.050 C 
HETATM   31  C   UNL     1       4.437 -12.040  -1.803  1.00  0.00     0.086 A 
HETATM   32  C   UNL     1       3.819 -10.816  -1.480  1.00  0.00     0.039 A 
BRANCH  31  33
HETATM   33  S   UNL     1       3.594 -13.070  -2.991  1.00  0.00     0.259 S 
HETATM   34  O   UNL     1       3.732 -14.452  -2.593  1.00  0.00    -0.201 OA
HETATM   35  O   UNL     1       2.295 -12.498  -3.265  1.00  0.00    -0.201 OA
BRANCH  33  36
HETATM   36  N   UNL     1       4.545 -12.862  -4.363  1.00  0.00    -0.320 N 
HETATM   37  C   UNL     1       4.324 -11.680  -5.189  1.00  0.00     0.159 C 
HETATM   38  HN  UNL     1       4.771 -13.742  -4.825  1.00  0.00     0.171 HD
ENDBRANCH  33  36
ENDBRANCH  31  33
ENDBRANCH  23  26
ENDBRANCH  12  14
ENDBRANCH   9  12
ENDBRANCH   6   8
TORSDOF 6
