REMARK  6 active torsions:
REMARK  status: ('A' for Active; 'I' for Inactive)
REMARK    1  A    between atoms: C_5  and  C_8 
REMARK    2  A    between atoms: C_8  and  N_9 
REMARK       I    between atoms: N_9  and  C_10 
REMARK    3  A    between atoms: N_9  and  C_13 
REMARK    4  A    between atoms: N_16  and  C_17 
REMARK    5  A    between atoms: C_17  and  C_18 
REMARK       I    between atoms: C_18  and  N_20 
REMARK    6  A    between atoms: N_20  and  C_21 
ROOT
HETATM    1  C   UNL     1       3.127  -0.554  -5.950  1.00  0.00     0.048 C 
HETATM    2  C   UNL     1       4.180  -0.916  -4.943  1.00  0.00    -0.062 A 
HETATM    3  C   UNL     1       4.491  -2.255  -4.687  1.00  0.00     0.007 A 
HETATM    4  C   UNL     1       5.274  -2.601  -3.580  1.00  0.00     0.009 A 
HETATM    5  C   UNL     1       5.754  -1.615  -2.703  1.00  0.00    -0.040 A 
HETATM    6  C   UNL     1       5.538  -0.270  -3.037  1.00  0.00     0.009 A 
HETATM    7  C   UNL     1       4.751   0.075  -4.140  1.00  0.00     0.007 A 
ENDROOT
BRANCH   5   8
HETATM    8  C   UNL     1       6.262  -2.021  -1.328  1.00  0.00     0.172 C 
BRANCH   8   9
HETATM    9  N   UNL     1       7.373  -1.222  -0.802  1.00  0.00    -0.295 N 
HETATM   10  C   UNL     1       6.995  -0.206   0.091  1.00  0.00     0.221 C 
HETATM   11  O   UNL     1       5.820   0.145   0.243  1.00  0.00    -0.273 OA
HETATM   12  C   UNL     1       8.053   0.476   0.929  1.00  0.00     0.117 C 
BRANCH   9  13
HETATM   13  C   UNL     1       8.683  -1.429  -1.257  1.00  0.00     0.180 C 
HETATM   14  C   UNL     1       9.093  -2.825  -1.774  1.00  0.00     0.293 C 
HETATM   15  O   UNL     1       8.334  -3.567  -2.388  1.00  0.00    -0.264 OA
HETATM   16  N   UNL     1      10.406  -3.183  -1.452  1.00  0.00    -0.300 N 
HETATM   17  C   UNL     1      11.361  -2.118  -1.599  1.00  0.00     0.065 A 
HETATM   18  C   UNL     1      12.706  -2.328  -1.928  1.00  0.00     0.032 A 
HETATM   19  C   UNL     1      10.890  -0.788  -1.513  1.00  0.00     0.061 A 
HETATM   20  C   UNL     1      13.551  -1.243  -2.199  1.00  0.00     0.002 A 
HETATM   21  C   UNL     1      13.078   0.062  -2.104  1.00  0.00     0.002 A 
HETATM   22  C   UNL     1      11.754   0.287  -1.742  1.00  0.00     0.032 A 
HETATM   23  N   UNL     1       9.562  -0.483  -1.172  1.00  0.00    -0.336 N 
HETATM   24  HN  UNL     1       9.299   0.454  -0.867  1.00  0.00     0.168 HD
BRANCH  16  25
HETATM   25  C   UNL     1      10.787  -4.589  -1.582  1.00  0.00     0.235 C 
BRANCH  25  26
HETATM   26  C   UNL     1      10.028  -5.564  -0.642  1.00  0.00     0.240 C 
HETATM   27  O   UNL     1      10.623  -6.143   0.268  1.00  0.00    -0.271 OA
HETATM   28  N   UNL     1       8.699  -5.785  -0.981  1.00  0.00    -0.325 N 
HETATM   29  HN  UNL     1       8.428  -5.484  -1.915  1.00  0.00     0.169 HD
BRANCH  28  30
HETATM   30  C   UNL     1       7.858  -6.735  -0.349  1.00  0.00     0.046 A 
HETATM   31  C   UNL     1       7.651  -6.749   1.045  1.00  0.00    -0.034 A 
HETATM   32  C   UNL     1       8.199  -5.718   1.996  1.00  0.00     0.050 C 
HETATM   33  C   UNL     1       6.814  -7.734   1.612  1.00  0.00     0.015 A 
HETATM   34  C   UNL     1       6.152  -8.675   0.821  1.00  0.00    -0.061 A 
HETATM   35  C   UNL     1       5.276  -9.730   1.429  1.00  0.00     0.048 C 
HETATM   36  C   UNL     1       6.322  -8.621  -0.563  1.00  0.00     0.015 A 
HETATM   37  C   UNL     1       7.166  -7.665  -1.160  1.00  0.00    -0.034 A 
HETATM   38  C   UNL     1       7.312  -7.708  -2.658  1.00  0.00     0.050 C 
ENDBRANCH  28  30
ENDBRANCH  25  26
ENDBRANCH  16  25
ENDBRANCH   9  13
ENDBRANCH   8   9
ENDBRANCH   5   8
TORSDOF 6
