REMARK  5 active torsions:
REMARK  status: ('A' for Active; 'I' for Inactive)
REMARK    1  A    between atoms: C_2  and  C_3 
REMARK    2  A    between atoms: C_3  and  C_4 
REMARK    3  A    between atoms: C_3  and  N_16 
REMARK       I    between atoms: C_4  and  N_6 
REMARK    4  A    between atoms: N_6  and  C_7 
REMARK    5  A    between atoms: C_25  and  C_26 
ROOT
HETATM    1  C   UNL     1       2.808   0.186   1.198  1.00  0.00     0.007 C 
HETATM    2  C   UNL     1       2.489  -0.987   0.281  1.00  0.00     0.032 C 
ENDROOT
BRANCH   2   3
HETATM    3  C   UNL     1       3.162  -0.902  -1.103  1.00  0.00     0.203 C 
BRANCH   3   4
HETATM    4  C   UNL     1       2.598   0.275  -1.928  1.00  0.00     0.247 C 
HETATM    5  O   UNL     1       1.409   0.580  -1.856  1.00  0.00    -0.271 OA
HETATM    6  N   UNL     1       3.523   0.844  -2.790  1.00  0.00    -0.325 N 
HETATM    7  HN  UNL     1       4.485   0.593  -2.564  1.00  0.00     0.169 HD
BRANCH   6   8
HETATM    8  C   UNL     1       3.324   1.952  -3.631  1.00  0.00     0.037 A 
HETATM    9  C   UNL     1       2.042   2.420  -3.969  1.00  0.00     0.032 A 
HETATM   10  C   UNL     1       1.875   3.576  -4.732  1.00  0.00     0.042 A 
HETATM   11  C   UNL     1       3.006   4.232  -5.152  1.00  0.00     0.105 A 
HETATM   12  C   UNL     1       4.265   3.760  -4.863  1.00  0.00     0.107 A 
HETATM   13  O   UNL     1       3.030   5.385  -5.869  1.00  0.00    -0.323 OA
HETATM   14  C   UNL     1       4.460   2.615  -4.118  1.00  0.00     0.069 A 
HETATM   15  O   UNL     1       5.242   4.560  -5.371  1.00  0.00    -0.323 OA
HETATM   16  C   UNL     1       4.449   5.615  -5.959  1.00  0.00     0.352 A 
ENDBRANCH   6   8
ENDBRANCH   3   4
BRANCH   3  17
HETATM   17  N   UNL     1       4.633  -1.014  -1.038  1.00  0.00    -0.243 N 
HETATM   18  C   UNL     1       5.190  -2.283  -1.004  1.00  0.00     0.269 A 
HETATM   19  O   UNL     1       4.531  -3.321  -0.997  1.00  0.00    -0.266 OA
HETATM   20  C   UNL     1       6.674  -2.347  -0.978  1.00  0.00     0.020 A 
HETATM   21  C   UNL     1       7.253  -3.741  -0.936  1.00  0.00     0.045 C 
HETATM   22  C   UNL     1       7.424  -1.230  -0.990  1.00  0.00    -0.017 A 
HETATM   23  C   UNL     1       8.751  -3.771  -1.229  1.00  0.00     0.005 C 
HETATM   24  C   UNL     1       9.455  -2.677  -0.442  1.00  0.00     0.005 C 
HETATM   25  C   UNL     1       8.924  -1.308  -0.869  1.00  0.00     0.042 C 
HETATM   26  C   UNL     1       6.677   0.069  -1.071  1.00  0.00     0.065 A 
HETATM   27  N   UNL     1       5.378   0.142  -1.055  1.00  0.00    -0.294 N 
HETATM   28  HN  UNL     1       4.915   1.051  -1.055  1.00  0.00     0.187 HD
BRANCH  26  29
HETATM   29  C   UNL     1       7.417   1.376  -1.196  1.00  0.00    -0.007 C 
HETATM   30  C   UNL     1       8.588   1.508  -1.948  1.00  0.00     0.014 C 
HETATM   31  C   UNL     1       9.291   2.715  -1.987  1.00  0.00     0.007 C 
HETATM   32  C   UNL     1       8.788   3.847  -1.346  1.00  0.00    -0.062 C 
HETATM   33  C   UNL     1       9.546   5.141  -1.384  1.00  0.00     0.048 C 
HETATM   34  C   UNL     1       7.549   3.759  -0.702  1.00  0.00     0.007 C 
HETATM   35  C   UNL     1       6.875   2.532  -0.617  1.00  0.00     0.014 C 
ENDBRANCH  26  29
ENDBRANCH   3  17
ENDBRANCH   2   3
TORSDOF 5
