REMARK  6 active torsions:
REMARK  status: ('A' for Active; 'I' for Inactive)
REMARK    1  A    between atoms: C_2  and  C_3 
REMARK    2  A    between atoms: C_2  and  N_16 
REMARK       I    between atoms: C_3  and  N_5 
REMARK    3  A    between atoms: N_5  and  C_6 
REMARK    4  A    between atoms: C_8  and  O_14 
REMARK    5  A    between atoms: C_11  and  O_12 
REMARK    6  A    between atoms: C_21  and  C_22 
ROOT
HETATM    1  C   UNL     1       1.024   0.117   0.032  1.00  0.00     0.044 C 
HETATM    2  C   UNL     1       2.538   0.033  -0.165  1.00  0.00     0.199 C 
ENDROOT
BRANCH   2   3
HETATM    3  C   UNL     1       3.272   0.199   1.188  1.00  0.00     0.246 C 
HETATM    4  O   UNL     1       2.680   0.103   2.264  1.00  0.00    -0.271 OA
HETATM    5  N   UNL     1       4.633   0.474   1.080  1.00  0.00    -0.323 N 
HETATM    6  HN  UNL     1       5.082   0.297   0.184  1.00  0.00     0.169 HD
BRANCH   5   7
HETATM    7  C   UNL     1       5.479   0.688   2.198  1.00  0.00     0.071 A 
HETATM    8  C   UNL     1       5.034   1.501   3.262  1.00  0.00     0.069 A 
HETATM    9  C   UNL     1       5.875   1.805   4.337  1.00  0.00     0.070 A 
HETATM   10  C   UNL     1       7.153   1.254   4.377  1.00  0.00     0.039 A 
HETATM   11  C   UNL     1       7.608   0.451   3.333  1.00  0.00     0.042 A 
HETATM   12  C   UNL     1       6.787   0.175   2.235  1.00  0.00     0.095 A 
BRANCH   9  13
HETATM   13  O   UNL     1       5.589   2.632   5.388  1.00  0.00    -0.356 OA
HETATM   14  C   UNL     1       4.341   3.312   5.364  1.00  0.00     0.210 C 
ENDBRANCH   9  13
BRANCH  12  15
HETATM   15  O   UNL     1       7.405  -0.579   1.274  1.00  0.00    -0.354 OA
HETATM   16  C   UNL     1       6.654  -1.652   0.728  1.00  0.00     0.210 C 
ENDBRANCH  12  15
ENDBRANCH   5   7
ENDBRANCH   2   3
BRANCH   2  17
HETATM   17  N   UNL     1       2.962  -1.201  -0.850  1.00  0.00    -0.244 N 
HETATM   18  C   UNL     1       4.085  -1.167  -1.656  1.00  0.00     0.262 A 
HETATM   19  O   UNL     1       4.784  -0.167  -1.816  1.00  0.00    -0.267 OA
HETATM   20  C   UNL     1       4.498  -2.439  -2.275  1.00  0.00     0.078 A 
HETATM   21  C   UNL     1       3.794  -3.554  -2.080  1.00  0.00     0.037 A 
HETATM   22  C   UNL     1       2.571  -3.442  -1.255  1.00  0.00     0.058 A 
HETATM   23  N   UNL     1       2.190  -2.342  -0.677  1.00  0.00    -0.294 N 
HETATM   24  HN  UNL     1       1.343  -2.318  -0.109  1.00  0.00     0.187 HD
BRANCH  22  25
HETATM   25  C   UNL     1       1.710  -4.664  -1.168  1.00  0.00    -0.008 A 
HETATM   26  C   UNL     1       2.255  -5.960  -1.182  1.00  0.00     0.014 A 
HETATM   27  C   UNL     1       1.410  -7.067  -1.204  1.00  0.00     0.001 A 
HETATM   28  C   UNL     1       0.024  -6.902  -1.206  1.00  0.00     0.000 A 
HETATM   29  C   UNL     1      -0.518  -5.615  -1.152  1.00  0.00     0.001 A 
HETATM   30  C   UNL     1       0.325  -4.505  -1.127  1.00  0.00     0.014 A 
ENDBRANCH  22  25
ENDBRANCH   2  17
TORSDOF 6
