REMARK  6 active torsions:
REMARK  status: ('A' for Active; 'I' for Inactive)
REMARK    1  A    between atoms: C_5  and  N_9 
REMARK       I    between atoms: N_9  and  C_10 
REMARK    2  A    between atoms: C_10  and  C_12 
REMARK    3  A    between atoms: C_12  and  N_14 
REMARK    4  A    between atoms: C_23  and  C_24 
REMARK    5  A    between atoms: C_29  and  S_31 
REMARK    6  A    between atoms: S_31  and  N_34 
ROOT
HETATM    1  C   UNL     1      12.503  -2.020  -7.592  1.00  0.00     0.048 C 
HETATM    2  C   UNL     1      11.888  -1.276  -6.445  1.00  0.00    -0.061 A 
HETATM    3  C   UNL     1      11.077  -1.932  -5.526  1.00  0.00     0.009 A 
HETATM    4  C   UNL     1      10.493  -1.229  -4.469  1.00  0.00     0.030 A 
HETATM    5  C   UNL     1      10.698   0.146  -4.291  1.00  0.00     0.040 A 
HETATM    6  C   UNL     1      11.527   0.821  -5.213  1.00  0.00    -0.035 A 
HETATM    7  C   UNL     1      11.891   2.281  -5.141  1.00  0.00     0.050 C 
HETATM    8  C   UNL     1      12.119   0.092  -6.272  1.00  0.00     0.015 A 
ENDROOT
BRANCH   5   9
HETATM    9  N   UNL     1      10.084   0.846  -3.221  1.00  0.00    -0.325 N 
HETATM   10  C   UNL     1       9.512   0.302  -2.074  1.00  0.00     0.246 C 
HETATM   11  O   UNL     1       9.341  -0.900  -1.867  1.00  0.00    -0.271 OA
HETATM   12  HN  UNL     1      10.177   1.850  -3.209  1.00  0.00     0.169 HD
BRANCH  10  13
HETATM   13  C   UNL     1       8.926   1.349  -1.087  1.00  0.00     0.199 C 
HETATM   14  C   UNL     1       8.911   0.808   0.345  1.00  0.00     0.044 C 
BRANCH  13  15
HETATM   15  N   UNL     1       9.561   2.675  -1.163  1.00  0.00    -0.243 N 
HETATM   16  C   UNL     1      10.912   2.784  -0.890  1.00  0.00     0.269 C 
HETATM   17  O   UNL     1      11.652   1.823  -0.695  1.00  0.00    -0.266 OA
HETATM   18  C   UNL     1      11.479   4.149  -0.950  1.00  0.00     0.020 C 
HETATM   19  C   UNL     1      12.987   4.186  -1.002  1.00  0.00     0.045 C 
HETATM   20  C   UNL     1      10.688   5.237  -0.994  1.00  0.00    -0.017 C 
HETATM   21  C   UNL     1      13.532   5.518  -1.500  1.00  0.00     0.005 C 
HETATM   22  C   UNL     1      12.828   6.654  -0.791  1.00  0.00     0.005 C 
HETATM   23  C   UNL     1      11.315   6.611  -1.027  1.00  0.00     0.042 C 
HETATM   24  C   UNL     1       9.202   4.964  -1.107  1.00  0.00     0.065 C 
HETATM   25  N   UNL     1       8.711   3.760  -1.210  1.00  0.00    -0.294 N 
HETATM   26  HN  UNL     1       7.707   3.622  -1.324  1.00  0.00     0.187 HD
BRANCH  24  27
HETATM   27  C   UNL     1       8.209   6.105  -1.213  1.00  0.00    -0.006 C 
HETATM   28  C   UNL     1       7.042   5.943  -1.974  1.00  0.00     0.014 C 
HETATM   29  C   UNL     1       6.168   7.022  -2.203  1.00  0.00     0.009 C 
HETATM   30  C   UNL     1       6.471   8.311  -1.739  1.00  0.00    -0.039 C 
HETATM   31  C   UNL     1       5.571   9.461  -2.095  1.00  0.00     0.050 C 
HETATM   32  C   UNL     1       7.628   8.458  -0.963  1.00  0.00     0.081 C 
HETATM   33  C   UNL     1       8.402   7.341  -0.609  1.00  0.00     0.039 C 
BRANCH  32  34
HETATM   34  S   UNL     1       8.283  10.048  -0.509  1.00  0.00     0.239 S 
HETATM   35  O   UNL     1       7.252  10.848   0.099  1.00  0.00    -0.206 OA
HETATM   36  O   UNL     1       9.584   9.864   0.098  1.00  0.00    -0.206 OA
BRANCH  34  37
HETATM   37  N   UNL     1       8.621  10.733  -2.009  1.00  0.00    -0.225 NA
HETATM   38  HN1 UNL     1       8.068  11.580  -2.145  1.00  0.00     0.136 HD
HETATM   39  HN2 UNL     1       9.626  10.882  -2.105  1.00  0.00     0.136 HD
ENDBRANCH  34  37
ENDBRANCH  32  34
ENDBRANCH  24  27
ENDBRANCH  13  15
ENDBRANCH  10  13
ENDBRANCH   5   9
TORSDOF 6
