REMARK  4 active torsions:
REMARK  status: ('A' for Active; 'I' for Inactive)
REMARK    1  A    between atoms: N_10  and  C_11 
REMARK    2  A    between atoms: N_20  and  N_22 
REMARK       I    between atoms: N_22  and  C_23 
REMARK    3  A    between atoms: C_23  and  C_25 
REMARK    4  A    between atoms: C_28  and  N_31 
ROOT
HETATM    1  C   UNL     1       0.914  -0.054  -0.336  1.00  0.00     0.022 C 
HETATM    2  C   UNL     1       2.456  -0.018  -0.249  1.00  0.00     0.006 A 
HETATM    3  C   UNL     1       3.032  -0.059  -1.683  1.00  0.00     0.022 C 
HETATM    4  C   UNL     1       2.864   1.336   0.390  1.00  0.00     0.075 A 
HETATM    5  C   UNL     1       3.763   1.227   1.562  1.00  0.00     0.051 A 
HETATM    6  C   UNL     1       4.133   0.064   2.195  1.00  0.00     0.058 A 
HETATM    7  C   UNL     1       4.800   0.477   3.352  1.00  0.00     0.125 A 
HETATM    8  N   UNL     1       4.812   1.804   3.480  1.00  0.00    -0.304 N 
HETATM    9  HN  UNL     1       5.165   2.348   4.267  1.00  0.00     0.186 HD
HETATM   10  N   UNL     1       4.251   2.277   2.333  1.00  0.00    -0.260 N 
HETATM   11  C   UNL     1       3.784  -1.240   1.708  1.00  0.00     0.210 A 
HETATM   12  O   UNL     1       4.140  -2.273   2.269  1.00  0.00    -0.285 OA
HETATM   13  C   UNL     1       2.918  -1.327   0.445  1.00  0.00     0.085 A 
HETATM   14  N   UNL     1       2.554  -2.447  -0.114  1.00  0.00    -0.297 N 
HETATM   15  HN  UNL     1       1.985  -2.427  -0.960  1.00  0.00     0.187 HD
ENDROOT
BRANCH  14  16
HETATM   16  N   UNL     1       2.924  -3.640   0.418  1.00  0.00    -0.266 N 
HETATM   17  C   UNL     1       2.488  -4.805  -0.196  1.00  0.00     0.270 C 
HETATM   18  O   UNL     1       1.791  -4.851  -1.206  1.00  0.00    -0.266 OA
HETATM   19  HN  UNL     1       3.435  -3.646   1.302  1.00  0.00     0.190 HD
BRANCH  17  20
HETATM   20  C   UNL     1       2.871  -6.080   0.467  1.00  0.00     0.033 A 
HETATM   21  C   UNL     1       2.013  -7.181   0.317  1.00  0.00     0.019 A 
HETATM   22  C   UNL     1       2.299  -8.395   0.946  1.00  0.00     0.037 A 
HETATM   23  C   UNL     1       3.459  -8.509   1.722  1.00  0.00     0.102 A 
HETATM   24  C   UNL     1       4.343  -7.427   1.847  1.00  0.00     0.037 A 
HETATM   25  C   UNL     1       4.049  -6.213   1.216  1.00  0.00     0.019 A 
BRANCH  23  26
HETATM   26  N   UNL     1       3.746  -9.768   2.421  1.00  0.00    -0.116 N 
HETATM   27  O   UNL     1       2.928 -10.691   2.306  1.00  0.00    -0.532 OA
HETATM   28  O   UNL     1       4.786  -9.829   3.093  1.00  0.00    -0.532 OA
ENDBRANCH  23  26
ENDBRANCH  17  20
ENDBRANCH  14  16
BRANCH  10  29
HETATM   29  C   UNL     1       4.193   3.679   2.092  1.00  0.00     0.056 A 
HETATM   30  C   UNL     1       4.210   4.203   0.793  1.00  0.00     0.031 A 
HETATM   31  C   UNL     1       4.115   5.580   0.584  1.00  0.00     0.002 A 
HETATM   32  C   UNL     1       4.016   6.446   1.669  1.00  0.00     0.000 A 
HETATM   33  C   UNL     1       4.036   5.937   2.967  1.00  0.00     0.002 A 
HETATM   34  C   UNL     1       4.139   4.559   3.182  1.00  0.00     0.031 A 
ENDBRANCH  10  29
TORSDOF 4
