REMARK  4 active torsions:
REMARK  status: ('A' for Active; 'I' for Inactive)
REMARK    1  A    between atoms: C_6  and  C_7 
REMARK    2  A    between atoms: C_7  and  C_8 
REMARK    3  A    between atoms: C_8  and  O_10 
REMARK    4  A    between atoms: O_10  and  C_11 
ROOT
HETATM    1  C   UNL     1      -0.541   0.275  -1.100  1.00  0.00     0.009 A 
HETATM    2  C   UNL     1       0.845   0.155  -0.979  1.00  0.00     0.024 A 
HETATM    3  C   UNL     1       1.407  -0.215   0.241  1.00  0.00     0.034 A 
HETATM    4  C   UNL     1       0.595  -0.447   1.348  1.00  0.00     0.024 A 
HETATM    5  C   UNL     1      -0.791  -0.327   1.229  1.00  0.00     0.009 A 
HETATM    6  C   UNL     1      -1.373   0.021  -0.000  1.00  0.00    -0.049 A 
HETATM    7 CL   UNL     1       3.111  -0.404   0.378  1.00  0.00    -0.084 Cl
ENDROOT
BRANCH   6   8
HETATM    8  C   UNL     1      -2.869   0.027  -0.152  1.00  0.00     0.150 C 
BRANCH   8   9
HETATM    9  C   UNL     1      -3.486   1.364  -0.488  1.00  0.00     0.268 C 
HETATM   10  O   UNL     1      -3.631   1.806  -1.621  1.00  0.00    -0.265 OA
BRANCH   9  11
HETATM   11  O   UNL     1      -3.928   1.968   0.682  1.00  0.00    -0.279 OA
BRANCH  11  12
HETATM   12  C   UNL     1      -5.281   2.334   0.671  1.00  0.00     0.079 A 
HETATM   13  C   UNL     1      -6.262   1.479   0.157  1.00  0.00     0.039 A 
HETATM   14  C   UNL     1      -7.609   1.813   0.290  1.00  0.00     0.022 A 
HETATM   15  C   UNL     1      -7.966   2.991   0.944  1.00  0.00     0.011 A 
HETATM   16  C   UNL     1      -6.988   3.839   1.468  1.00  0.00     0.022 A 
HETATM   17 BR   UNL     1      -9.795   3.425   1.142  1.00  0.00    -0.051 Br
HETATM   18  C   UNL     1      -5.637   3.507   1.336  1.00  0.00     0.039 A 
ENDBRANCH  11  12
ENDBRANCH   9  11
ENDBRANCH   8   9
ENDBRANCH   6   8
TORSDOF 4
