REMARK  4 active torsions:
REMARK  status: ('A' for Active; 'I' for Inactive)
REMARK    1  A    between atoms: C_5  and  N_8 
REMARK    2  A    between atoms: N_8  and  S_9 
REMARK    3  A    between atoms: S_9  and  C_12 
REMARK    4  A    between atoms: C_14  and  C_19 
ROOT
HETATM    1  C   UNL     1       4.713   0.416  -6.565  1.00  0.00     0.048 C 
HETATM    2  C   UNL     1       5.300  -0.229  -5.344  1.00  0.00    -0.062 A 
HETATM    3  C   UNL     1       6.645  -0.620  -5.311  1.00  0.00     0.009 A 
HETATM    4  C   UNL     1       7.172  -1.245  -4.179  1.00  0.00     0.030 A 
HETATM    5  C   UNL     1       6.351  -1.497  -3.083  1.00  0.00     0.042 A 
HETATM    6  C   UNL     1       5.017  -1.094  -3.094  1.00  0.00     0.030 A 
HETATM    7  C   UNL     1       4.492  -0.464  -4.224  1.00  0.00     0.009 A 
ENDROOT
BRANCH   5   8
HETATM    8  N   UNL     1       6.878  -2.154  -1.942  1.00  0.00    -0.281 N 
HETATM    9  HN  UNL     1       6.322  -2.910  -1.544  1.00  0.00     0.179 HD
BRANCH   8  10
HETATM   10  S   UNL     1       7.571  -1.218  -0.720  1.00  0.00     0.263 S 
HETATM   11  O   UNL     1       6.898   0.061  -0.664  1.00  0.00    -0.200 OA
HETATM   12  O   UNL     1       7.629  -2.070   0.450  1.00  0.00    -0.200 OA
BRANCH  10  13
HETATM   13  C   UNL     1       9.253  -0.972  -1.273  1.00  0.00     0.086 C 
HETATM   14  C   UNL     1       9.701   0.351  -1.468  1.00  0.00     0.039 C 
HETATM   15  C   UNL     1      11.041   0.620  -1.801  1.00  0.00    -0.006 C 
HETATM   16  C   UNL     1      11.930  -0.456  -1.806  1.00  0.00     0.014 C 
HETATM   17  C   UNL     1      11.480  -1.774  -1.678  1.00  0.00     0.009 C 
HETATM   18  C   UNL     1      10.131  -2.059  -1.439  1.00  0.00    -0.039 C 
HETATM   19  C   UNL     1       9.709  -3.501  -1.369  1.00  0.00     0.050 C 
BRANCH  15  20
HETATM   20  C   UNL     1      11.454   2.047  -2.096  1.00  0.00     0.065 A 
HETATM   21  C   UNL     1      12.553   2.347  -3.086  1.00  0.00    -0.017 A 
HETATM   22  C   UNL     1      13.283   1.285  -3.871  1.00  0.00     0.042 C 
HETATM   23  C   UNL     1      12.832   3.649  -3.289  1.00  0.00     0.020 A 
HETATM   24  C   UNL     1      14.103   1.802  -5.056  1.00  0.00     0.005 C 
HETATM   25  C   UNL     1      14.880   3.044  -4.652  1.00  0.00     0.005 C 
HETATM   26  C   UNL     1      13.910   4.141  -4.224  1.00  0.00     0.045 C 
HETATM   27  C   UNL     1      12.062   4.723  -2.607  1.00  0.00     0.268 A 
HETATM   28  O   UNL     1      12.319   5.902  -2.840  1.00  0.00    -0.266 OA
HETATM   29  N   UNL     1      11.069   4.295  -1.744  1.00  0.00    -0.261 N 
HETATM   30  C   UNL     1      10.230   5.273  -1.075  1.00  0.00     0.181 C 
HETATM   31  N   UNL     1      10.775   2.978  -1.492  1.00  0.00    -0.295 N 
HETATM   32  HN  UNL     1      10.032   2.732  -0.838  1.00  0.00     0.187 HD
ENDBRANCH  15  20
ENDBRANCH  10  13
ENDBRANCH   8  10
ENDBRANCH   5   8
TORSDOF 4
