REMARK  4 active torsions:
REMARK  status: ('A' for Active; 'I' for Inactive)
REMARK    1  A    between atoms: O_2  and  C_3 
REMARK    2  A    between atoms: C_6  and  N_9 
REMARK       I    between atoms: N_9  and  C_10 
REMARK    3  A    between atoms: C_10  and  C_12 
REMARK    4  A    between atoms: C_16  and  N_18 
ROOT
HETATM    1  C   UNL     1       2.745   2.228   3.683  1.00  0.00     0.210 C 
HETATM    2  O   UNL     1       2.662   3.648   3.579  1.00  0.00    -0.356 OA
ENDROOT
BRANCH   2   3
HETATM    3  C   UNL     1       3.526   4.212   2.680  1.00  0.00     0.068 A 
HETATM    4  C   UNL     1       4.019   3.572   1.548  1.00  0.00     0.039 A 
HETATM    5  C   UNL     1       4.907   4.235   0.693  1.00  0.00     0.032 A 
HETATM    6  C   UNL     1       5.307   5.549   0.946  1.00  0.00     0.035 A 
HETATM    7  C   UNL     1       4.797   6.193   2.080  1.00  0.00     0.032 A 
HETATM    8  C   UNL     1       3.900   5.532   2.931  1.00  0.00     0.039 A 
BRANCH   6   9
HETATM    9  N   UNL     1       6.208   6.257   0.112  1.00  0.00    -0.323 N 
HETATM   10  C   UNL     1       6.637   5.854  -1.143  1.00  0.00     0.256 C 
HETATM   11  O   UNL     1       6.267   4.857  -1.754  1.00  0.00    -0.267 OA
HETATM   12  HN  UNL     1       6.468   7.185   0.421  1.00  0.00     0.169 HD
BRANCH  10  13
HETATM   13  C   UNL     1       7.604   6.751  -1.830  1.00  0.00     0.034 A 
HETATM   14  C   UNL     1       8.653   7.378  -1.164  1.00  0.00     0.017 A 
HETATM   15  C   UNL     1       9.568   8.129  -1.903  1.00  0.00     0.003 A 
HETATM   16  C   UNL     1       9.430   8.275  -3.296  1.00  0.00     0.030 A 
HETATM   17  C   UNL     1       8.370   7.679  -3.986  1.00  0.00     0.046 A 
HETATM   18  C   UNL     1       7.487   6.890  -3.224  1.00  0.00     0.047 A 
BRANCH  17  19
HETATM   19  N   UNL     1       8.189   7.800  -5.407  1.00  0.00    -0.252 N 
HETATM   20  C   UNL     1       9.076   8.355  -6.313  1.00  0.00     0.236 C 
HETATM   21  O   UNL     1      10.124   8.961  -6.096  1.00  0.00    -0.272 OA
HETATM   22  C   UNL     1       8.573   8.097  -7.726  1.00  0.00     0.096 C 
HETATM   23  C   UNL     1       8.279   9.328  -8.614  1.00  0.00    -0.000 C 
HETATM   24  C   UNL     1       7.186   7.512  -7.500  1.00  0.00     0.096 C 
HETATM   25  C   UNL     1       7.775   8.841 -10.001  1.00  0.00     0.006 C 
HETATM   26  C   UNL     1       6.971   9.852  -8.030  1.00  0.00     0.011 C 
HETATM   27  C   UNL     1       6.385   8.250  -9.695  1.00  0.00     0.006 C 
HETATM   28  C   UNL     1       6.244   8.513  -8.189  1.00  0.00    -0.000 C 
HETATM   29  C   UNL     1       6.996   7.492  -6.023  1.00  0.00     0.236 C 
HETATM   30  O   UNL     1       5.894   7.299  -5.526  1.00  0.00    -0.272 OA
ENDBRANCH  17  19
ENDBRANCH  10  13
ENDBRANCH   6   9
ENDBRANCH   2   3
TORSDOF 4
