REMARK  9 active torsions:
REMARK  status: ('A' for Active; 'I' for Inactive)
REMARK    1  A    between atoms: C_2  and  C_3 
REMARK    2  A    between atoms: C_3  and  C_4 
REMARK    3  A    between atoms: C_4  and  C_5 
REMARK    4  A    between atoms: C_5  and  C_6 
REMARK    5  A    between atoms: C_6  and  C_7 
REMARK    6  A    between atoms: C_7  and  O_8 
REMARK    7  A    between atoms: O_8  and  C_9 
REMARK    8  A    between atoms: C_9  and  C_11 
REMARK    9  A    between atoms: C_14  and  N_17 
ROOT
HETATM    1  C   UNL     1       0.749   3.532   1.444  1.00  0.00     0.005 C 
HETATM    2  C   UNL     1       1.714   3.253   0.300  1.00  0.00    -0.005 C 
ENDROOT
BRANCH   2   3
HETATM    3  C   UNL     1       3.139   3.714   0.617  1.00  0.00    -0.000 C 
BRANCH   3   4
HETATM    4  C   UNL     1       4.097   3.425  -0.550  1.00  0.00     0.000 C 
BRANCH   4   5
HETATM    5  C   UNL     1       5.521   3.886  -0.232  1.00  0.00     0.002 C 
BRANCH   5   6
HETATM    6  C   UNL     1       6.524   3.619  -1.368  1.00  0.00     0.027 C 
BRANCH   6   7
HETATM    7  C   UNL     1       7.908   4.115  -0.949  1.00  0.00     0.179 C 
BRANCH   7   8
HETATM    8  O   UNL     1       8.960   3.820  -1.884  1.00  0.00    -0.318 OA
BRANCH   8   9
HETATM    9  C   UNL     1       9.338   4.844  -2.697  1.00  0.00     0.293 C 
HETATM   10  O   UNL     1       8.617   5.734  -3.093  1.00  0.00    -0.259 OA
BRANCH   9  11
HETATM   11  C   UNL     1      10.814   4.851  -2.886  1.00  0.00     0.039 A 
HETATM   12  C   UNL     1      11.640   4.210  -1.977  1.00  0.00     0.020 A 
HETATM   13  C   UNL     1      13.041   4.325  -2.089  1.00  0.00     0.031 A 
HETATM   14  C   UNL     1      13.661   5.123  -3.075  1.00  0.00     0.045 A 
HETATM   15  C   UNL     1      12.814   5.788  -3.964  1.00  0.00     0.031 A 
HETATM   16  C   UNL     1      11.408   5.651  -3.875  1.00  0.00     0.020 A 
BRANCH  14  17
HETATM   17  N   UNL     1      15.082   5.193  -3.148  1.00  0.00    -0.252 N 
HETATM   18  C   UNL     1      15.891   4.195  -2.644  1.00  0.00     0.238 C 
HETATM   19  O   UNL     1      15.677   3.401  -1.748  1.00  0.00    -0.272 OA
HETATM   20  C   UNL     1      17.189   4.355  -3.384  1.00  0.00     0.122 C 
HETATM   21  C   UNL     1      17.330   5.871  -3.170  1.00  0.00     0.122 C 
HETATM   22  C   UNL     1      18.392   3.544  -2.921  1.00  0.00     0.086 C 
HETATM   23  C   UNL     1      15.915   6.155  -3.759  1.00  0.00     0.238 C 
HETATM   24  C   UNL     1      18.680   6.125  -2.398  1.00  0.00     0.086 C 
HETATM   25  O   UNL     1      15.644   6.942  -4.648  1.00  0.00    -0.272 OA
HETATM   26  C   UNL     1      19.842   5.547  -3.220  1.00  0.00    -0.025 C 
HETATM   27  C   UNL     1      18.645   5.204  -1.110  1.00  0.00    -0.025 A 
HETATM   28 BR   UNL     1      18.892   8.011  -1.985  1.00  0.00    -0.074 Br
HETATM   29  C   UNL     1      21.086   6.145  -3.451  1.00  0.00     0.010 C 
HETATM   30  C   UNL     1      19.640   4.178  -3.586  1.00  0.00    -0.025 C 
HETATM   31  C   UNL     1      22.071   5.447  -4.150  1.00  0.00     0.001 C 
HETATM   32  C   UNL     1      21.822   4.159  -4.624  1.00  0.00     0.001 C 
HETATM   33  C   UNL     1      20.617   3.516  -4.334  1.00  0.00     0.010 C 
HETATM   34  C   UNL     1      18.498   3.804  -1.420  1.00  0.00    -0.025 A 
HETATM   35  C   UNL     1      18.709   5.578   0.229  1.00  0.00     0.010 A 
HETATM   36  C   UNL     1      18.350   2.851  -0.408  1.00  0.00     0.010 A 
HETATM   37  C   UNL     1      18.360   3.261   0.918  1.00  0.00     0.001 A 
HETATM   38  C   UNL     1      18.561   4.607   1.233  1.00  0.00     0.001 A 
HETATM   39 BR   UNL     1      18.113   1.690  -3.434  1.00  0.00    -0.074 Br
ENDBRANCH  14  17
ENDBRANCH   9  11
ENDBRANCH   8   9
ENDBRANCH   7   8
ENDBRANCH   6   7
ENDBRANCH   5   6
ENDBRANCH   4   5
ENDBRANCH   3   4
ENDBRANCH   2   3
TORSDOF 9
