REMARK  8 active torsions:
REMARK  status: ('A' for Active; 'I' for Inactive)
REMARK    1  A    between atoms: C_2  and  C_4 
REMARK    2  A    between atoms: C_4  and  O_5 
REMARK    3  A    between atoms: O_5  and  C_6 
REMARK    4  A    between atoms: C_6  and  C_8 
REMARK    5  A    between atoms: C_13  and  N_14 
REMARK    6  A    between atoms: N_14  and  C_15 
REMARK    7  A    between atoms: C_18  and  N_24 
REMARK    8  A    between atoms: C_20  and  N_21 
ROOT
HETATM    1  C   UNL     1       1.795  -4.001   0.260  1.00  0.00     0.011 C 
HETATM    2  C   UNL     1       2.472  -3.153   1.333  1.00  0.00     0.002 C 
HETATM    3  C   UNL     1       1.684  -3.211   2.642  1.00  0.00     0.011 C 
ENDROOT
BRANCH   2   4
HETATM    4  C   UNL     1       3.916  -3.607   1.588  1.00  0.00     0.183 C 
BRANCH   4   5
HETATM    5  O   UNL     1       4.774  -3.561   0.436  1.00  0.00    -0.317 OA
BRANCH   5   6
HETATM    6  C   UNL     1       5.239  -2.332   0.100  1.00  0.00     0.295 C 
HETATM    7  O   UNL     1       4.745  -1.268   0.443  1.00  0.00    -0.259 OA
BRANCH   6   8
HETATM    8  C   UNL     1       6.570  -2.424  -0.567  1.00  0.00     0.066 C 
HETATM    9  C   UNL     1       7.277  -1.209  -0.696  1.00  0.00     0.020 C 
HETATM   10  C   UNL     1       8.600  -1.182  -1.134  1.00  0.00     0.001 C 
HETATM   11  C   UNL     1       9.250  -2.373  -1.397  1.00  0.00     0.002 C 
HETATM   12  C   UNL     1       8.554  -3.575  -1.310  1.00  0.00     0.030 C 
HETATM   13  C   UNL     1       7.184  -3.625  -0.966  1.00  0.00     0.049 C 
BRANCH  13  14
HETATM   14  N   UNL     1       6.464  -4.829  -1.187  1.00  0.00    -0.353 N 
HETATM   15  HN  UNL     1       5.687  -5.003  -0.540  1.00  0.00     0.166 HD
BRANCH  14  16
HETATM   16  C   UNL     1       6.748  -5.827  -2.148  1.00  0.00     0.066 C 
HETATM   17  C   UNL     1       7.340  -5.427  -3.365  1.00  0.00     0.034 C 
HETATM   18  C   UNL     1       7.999  -6.327  -4.199  1.00  0.00     0.038 C 
HETATM   19  C   UNL     1       8.061  -7.669  -3.831  1.00  0.00     0.105 C 
HETATM   20  C   UNL     1       7.359  -8.132  -2.711  1.00  0.00     0.074 C 
HETATM   21  C   UNL     1       6.673  -7.209  -1.892  1.00  0.00     0.131 C 
BRANCH  19  22
HETATM   22  N   UNL     1       8.905  -8.584  -4.609  1.00  0.00    -0.116 N 
HETATM   23  O   UNL     1       9.482  -8.127  -5.606  1.00  0.00    -0.532 OA
HETATM   24  O   UNL     1       9.011  -9.749  -4.204  1.00  0.00    -0.532 OA
ENDBRANCH  19  22
BRANCH  21  25
HETATM   25  N   UNL     1       5.873  -7.732  -0.773  1.00  0.00    -0.113 N 
HETATM   26  O   UNL     1       5.126  -6.947  -0.171  1.00  0.00    -0.532 OA
HETATM   27  O   UNL     1       5.950  -8.946  -0.532  1.00  0.00    -0.532 OA
ENDBRANCH  21  25
ENDBRANCH  14  16
ENDBRANCH  13  14
ENDBRANCH   6   8
ENDBRANCH   5   6
ENDBRANCH   4   5
ENDBRANCH   2   4
TORSDOF 8
