REMARK  4 active torsions:
REMARK  status: ('A' for Active; 'I' for Inactive)
REMARK    1  A    between atoms: N_19  and  C_20 
REMARK    2  A    between atoms: C_25  and  O_26 
REMARK    3  A    between atoms: O_26  and  C_27 
REMARK    4  A    between atoms: C_27  and  C_29 
ROOT
HETATM    1  C   UNL     1      -3.441  -1.038  -0.335  1.00  0.00     0.001 A 
HETATM    2  C   UNL     1      -3.425  -0.859   1.048  1.00  0.00     0.001 A 
HETATM    3  C   UNL     1      -2.427  -0.092   1.661  1.00  0.00     0.010 A 
HETATM    4  C   UNL     1      -1.426   0.500   0.886  1.00  0.00    -0.025 A 
HETATM    5  C   UNL     1      -1.405   0.237  -0.526  1.00  0.00    -0.025 A 
HETATM    6  C   UNL     1      -2.431  -0.497  -1.126  1.00  0.00     0.010 A 
HETATM    7  C   UNL     1      -0.123   0.776  -1.210  1.00  0.00     0.086 C 
HETATM    8  C   UNL     1       1.041   0.136  -0.404  1.00  0.00    -0.025 A 
HETATM    9  C   UNL     1       1.912  -0.866  -0.839  1.00  0.00     0.010 A 
HETATM   10  C   UNL     1       2.813  -1.452   0.057  1.00  0.00     0.001 A 
HETATM   11  C   UNL     1       2.862  -1.044   1.390  1.00  0.00     0.001 A 
HETATM   12  C   UNL     1       1.964  -0.093   1.865  1.00  0.00     0.010 A 
HETATM   13  C   UNL     1       1.028   0.465   0.991  1.00  0.00    -0.025 A 
HETATM   14  C   UNL     1      -0.186   1.316   1.381  1.00  0.00     0.086 C 
HETATM   15  C   UNL     1      -0.114   2.618   0.542  1.00  0.00     0.122 C 
HETATM   16  C   UNL     1      -0.251   2.309  -0.968  1.00  0.00     0.122 C 
HETATM   17  C   UNL     1       0.735   3.241  -1.619  1.00  0.00     0.238 C 
HETATM   18  O   UNL     1       0.821   3.402  -2.830  1.00  0.00    -0.272 OA
HETATM   19  N   UNL     1       1.484   3.860  -0.652  1.00  0.00    -0.249 N 
HETATM   20  C   UNL     1       1.202   3.383   0.610  1.00  0.00     0.238 C 
HETATM   21  O   UNL     1       1.825   3.597   1.639  1.00  0.00    -0.272 OA
HETATM   22 BR   UNL     1      -0.321   1.761   3.268  1.00  0.00    -0.074 Br
HETATM   23 BR   UNL     1      -0.054   0.370  -3.107  1.00  0.00    -0.074 Br
ENDROOT
BRANCH  19  24
HETATM   24  C   UNL     1       2.533   4.768  -0.961  1.00  0.00     0.079 A 
HETATM   25  C   UNL     1       3.833   4.530  -0.488  1.00  0.00     0.033 A 
HETATM   26  C   UNL     1       4.892   5.379  -0.835  1.00  0.00     0.002 A 
HETATM   27  C   UNL     1       4.673   6.499  -1.628  1.00  0.00     0.003 A 
HETATM   28  C   UNL     1       3.381   6.782  -2.069  1.00  0.00     0.040 A 
HETATM   29  C   UNL     1       2.320   5.915  -1.758  1.00  0.00     0.106 A 
BRANCH  29  30
HETATM   30  O   UNL     1       0.988   6.326  -2.020  1.00  0.00    -0.271 OA
BRANCH  30  31
HETATM   31  C   UNL     1       0.738   7.119  -3.145  1.00  0.00     0.322 C 
HETATM   32  O   UNL     1       1.395   7.106  -4.181  1.00  0.00    -0.257 OA
BRANCH  31  33
HETATM   33  C   UNL     1      -0.345   8.040  -2.880  1.00  0.00     0.150 A 
HETATM   34  C   UNL     1      -0.827   9.098  -3.634  1.00  0.00     0.045 A 
HETATM   35  C   UNL     1      -1.900   9.666  -2.908  1.00  0.00     0.027 A 
HETATM   36  C   UNL     1      -1.985   8.954  -1.736  1.00  0.00     0.143 A 
HETATM   37  O   UNL     1      -1.047   7.971  -1.704  1.00  0.00    -0.317 OA
ENDBRANCH  31  33
ENDBRANCH  30  31
ENDBRANCH  29  30
ENDBRANCH  19  24
TORSDOF 4
