REMARK  2 active torsions:
REMARK  status: ('A' for Active; 'I' for Inactive)
REMARK    1  A    between atoms: C_13  and  S_15 
REMARK    2  A    between atoms: S_15  and  N_18 
ROOT
HETATM    1  C   UNL     1       1.052  -0.171  -0.125  1.00  0.00     0.048 C 
HETATM    2  C   UNL     1       2.553  -0.156  -0.110  1.00  0.00    -0.060 A 
HETATM    3  C   UNL     1       3.258   1.054  -0.040  1.00  0.00     0.021 A 
HETATM    4  C   UNL     1       4.663   1.092  -0.017  1.00  0.00    -0.001 A 
HETATM    5  C   UNL     1       5.426   2.366   0.013  1.00  0.00    -0.044 A 
HETATM    6  C   UNL     1       4.772   3.719  -0.009  1.00  0.00     0.049 C 
HETATM    7  C   UNL     1       6.769   2.314   0.042  1.00  0.00     0.082 A 
HETATM    8  C   UNL     1       7.518   1.045   0.037  1.00  0.00     0.246 A 
HETATM    9  O   UNL     1       8.744   1.044   0.060  1.00  0.00    -0.268 OA
HETATM   10  N   UNL     1       6.775  -0.095   0.003  1.00  0.00    -0.322 N 
HETATM   11  HN  UNL     1       7.310  -0.963  -0.048  1.00  0.00     0.169 HD
HETATM   12  C   UNL     1       5.368  -0.134  -0.026  1.00  0.00     0.069 A 
HETATM   13  C   UNL     1       4.664  -1.351  -0.065  1.00  0.00     0.102 A 
HETATM   14  C   UNL     1       3.265  -1.356  -0.143  1.00  0.00     0.034 A 
ENDROOT
BRANCH  13  15
HETATM   15  S   UNL     1       5.491  -2.926  -0.054  1.00  0.00     0.245 S 
HETATM   16  O   UNL     1       4.674  -3.876  -0.781  1.00  0.00    -0.206 OA
HETATM   17  O   UNL     1       6.877  -2.711  -0.421  1.00  0.00    -0.206 OA
BRANCH  15  18
HETATM   18  N   UNL     1       5.465  -3.358   1.587  1.00  0.00    -0.206 NA
HETATM   19  C   UNL     1       4.164  -3.725   2.182  1.00  0.00     0.107 C 
HETATM   20  C   UNL     1       4.556  -4.347   3.511  1.00  0.00     0.017 C 
HETATM   21  C   UNL     1       5.829  -5.111   3.193  1.00  0.00     0.017 C 
HETATM   22  C   UNL     1       6.443  -4.404   1.986  1.00  0.00     0.107 C 
ENDBRANCH  15  18
ENDBRANCH  13  15
TORSDOF 2
