REMARK  5 active torsions:
REMARK  status: ('A' for Active; 'I' for Inactive)
REMARK    1  A    between atoms: C_2  and  C_3 
REMARK    2  A    between atoms: C_2  and  N_14 
REMARK       I    between atoms: C_3  and  N_5 
REMARK    3  A    between atoms: C_23  and  N_26 
REMARK    4  A    between atoms: N_26  and  C_27 
REMARK       I    between atoms: N_26  and  C_35 
REMARK    5  A    between atoms: C_27  and  C_28 
ROOT
HETATM    1  C   UNL     1       0.974   0.267  -0.327  1.00  0.00     0.043 C 
HETATM    2  C   UNL     1       2.378  -0.171   0.109  1.00  0.00     0.182 C 
ENDROOT
BRANCH   2   3
HETATM    3  C   UNL     1       2.609  -0.158   1.647  1.00  0.00     0.247 C 
HETATM    4  O   UNL     1       2.936  -1.176   2.269  1.00  0.00    -0.271 OA
HETATM    5  N   UNL     1       2.406   1.019   2.347  1.00  0.00    -0.315 N 
HETATM    6  C   UNL     1       2.279   0.973   3.814  1.00  0.00     0.137 A 
HETATM    7  C   UNL     1       2.421   2.365   1.934  1.00  0.00     0.043 A 
HETATM    8  C   UNL     1       2.062   2.406   4.302  1.00  0.00     0.061 A 
HETATM    9  C   UNL     1       2.219   3.194   3.040  1.00  0.00    -0.030 A 
HETATM   10  C   UNL     1       2.192   4.575   2.917  1.00  0.00     0.009 A 
HETATM   11  C   UNL     1       2.395   5.141   1.657  1.00  0.00     0.001 A 
HETATM   12  C   UNL     1       2.634   4.326   0.553  1.00  0.00     0.002 A 
HETATM   13  C   UNL     1       2.653   2.940   0.689  1.00  0.00     0.030 A 
ENDBRANCH   2   3
BRANCH   2  14
HETATM   14  N   UNL     1       2.802  -1.352  -0.657  1.00  0.00    -0.296 N 
HETATM   15  C   UNL     1       2.425  -2.671  -0.290  1.00  0.00     0.065 A 
HETATM   16  C   UNL     1       1.441  -2.937   0.678  1.00  0.00     0.032 A 
HETATM   17  C   UNL     1       3.090  -3.745  -0.901  1.00  0.00     0.061 A 
HETATM   18  C   UNL     1       1.155  -4.240   1.079  1.00  0.00     0.002 A 
HETATM   19  C   UNL     1       1.846  -5.298   0.506  1.00  0.00     0.002 A 
HETATM   20  C   UNL     1       2.804  -5.049  -0.479  1.00  0.00     0.032 A 
HETATM   21  N   UNL     1       3.994  -3.588  -1.967  1.00  0.00    -0.336 N 
HETATM   22  C   UNL     1       4.207  -2.395  -2.439  1.00  0.00     0.180 C 
HETATM   23  HN  UNL     1       4.474  -4.396  -2.363  1.00  0.00     0.168 HD
HETATM   24  C   UNL     1       3.685  -1.138  -1.724  1.00  0.00     0.293 C 
HETATM   25  O   UNL     1       4.142  -0.040  -2.030  1.00  0.00    -0.264 OA
BRANCH  22  26
HETATM   26  N   UNL     1       4.991  -2.221  -3.596  1.00  0.00    -0.295 N 
HETATM   27  C   UNL     1       4.647  -1.274  -4.561  1.00  0.00     0.221 C 
HETATM   28  O   UNL     1       3.562  -0.684  -4.564  1.00  0.00    -0.273 OA
HETATM   29  C   UNL     1       5.575  -1.050  -5.742  1.00  0.00     0.117 C 
BRANCH  26  30
HETATM   30  C   UNL     1       6.010  -3.231  -3.867  1.00  0.00     0.172 C 
BRANCH  30  31
HETATM   31  C   UNL     1       7.432  -2.854  -3.473  1.00  0.00    -0.040 A 
HETATM   32  C   UNL     1       7.777  -1.661  -2.814  1.00  0.00     0.012 A 
HETATM   33  C   UNL     1       9.096  -1.431  -2.407  1.00  0.00     0.043 A 
HETATM   34  C   UNL     1      10.074  -2.387  -2.656  1.00  0.00     0.116 A 
HETATM   35  C   UNL     1       9.765  -3.557  -3.335  1.00  0.00     0.043 A 
HETATM   36  F   UNL     1      11.327  -2.183  -2.229  1.00  0.00    -0.206 F 
HETATM   37  C   UNL     1       8.452  -3.786  -3.748  1.00  0.00     0.012 A 
ENDBRANCH  30  31
ENDBRANCH  26  30
ENDBRANCH  22  26
ENDBRANCH   2  14
TORSDOF 5
