REMARK  6 active torsions:
REMARK  status: ('A' for Active; 'I' for Inactive)
REMARK    1  A    between atoms: C_2  and  C_3 
REMARK    2  A    between atoms: C_2  and  N_16 
REMARK       I    between atoms: C_3  and  N_5 
REMARK    3  A    between atoms: N_5  and  C_6 
REMARK    4  A    between atoms: C_9  and  O_14 
REMARK    5  A    between atoms: C_11  and  O_12 
REMARK    6  A    between atoms: C_21  and  C_22 
ROOT
HETATM    1  C   UNL     1       1.031   0.139   0.035  1.00  0.00     0.044 C 
HETATM    2  C   UNL     1       2.548   0.042  -0.139  1.00  0.00     0.199 C 
ENDROOT
BRANCH   2   3
HETATM    3  C   UNL     1       3.266   0.495   1.159  1.00  0.00     0.246 C 
HETATM    4  O   UNL     1       2.676   0.570   2.236  1.00  0.00    -0.271 OA
HETATM    5  N   UNL     1       4.616   0.806   0.995  1.00  0.00    -0.323 N 
HETATM    6  HN  UNL     1       5.068   0.486   0.143  1.00  0.00     0.169 HD
BRANCH   5   7
HETATM    7  C   UNL     1       5.438   1.295   2.043  1.00  0.00     0.068 A 
HETATM    8  C   UNL     1       4.932   2.327   2.856  1.00  0.00     0.035 A 
HETATM    9  C   UNL     1       5.713   2.919   3.855  1.00  0.00     0.039 A 
HETATM   10  C   UNL     1       7.010   2.480   4.086  1.00  0.00     0.070 A 
HETATM   11  C   UNL     1       7.514   1.449   3.298  1.00  0.00     0.075 A 
HETATM   12  C   UNL     1       6.755   0.859   2.266  1.00  0.00     0.097 A 
BRANCH  10  13
HETATM   13  O   UNL     1       7.683   3.126   5.086  1.00  0.00    -0.356 OA
HETATM   14  C   UNL     1       9.011   2.681   5.353  1.00  0.00     0.210 C 
ENDBRANCH  10  13
BRANCH  12  15
HETATM   15  O   UNL     1       7.479  -0.134   1.664  1.00  0.00    -0.354 OA
HETATM   16  C   UNL     1       6.862  -1.047   0.785  1.00  0.00     0.210 C 
ENDBRANCH  12  15
ENDBRANCH   5   7
ENDBRANCH   2   3
BRANCH   2  17
HETATM   17  N   UNL     1       3.001  -1.295  -0.581  1.00  0.00    -0.244 N 
HETATM   18  C   UNL     1       4.166  -1.387  -1.316  1.00  0.00     0.262 A 
HETATM   19  O   UNL     1       4.883  -0.421  -1.591  1.00  0.00    -0.267 OA
HETATM   20  C   UNL     1       4.595  -2.731  -1.723  1.00  0.00     0.078 A 
HETATM   21  C   UNL     1       3.848  -3.801  -1.447  1.00  0.00     0.037 A 
HETATM   22  C   UNL     1       2.564  -3.557  -0.749  1.00  0.00     0.058 A 
HETATM   23  N   UNL     1       2.179  -2.385  -0.335  1.00  0.00    -0.294 N 
HETATM   24  HN  UNL     1       1.294  -2.270   0.159  1.00  0.00     0.187 HD
BRANCH  22  25
HETATM   25  C   UNL     1       1.656  -4.740  -0.606  1.00  0.00    -0.008 A 
HETATM   26  C   UNL     1       2.143  -6.047  -0.464  1.00  0.00     0.014 A 
HETATM   27  C   UNL     1       1.261  -7.132  -0.467  1.00  0.00     0.001 A 
HETATM   28  C   UNL     1      -0.111  -6.920  -0.592  1.00  0.00     0.000 A 
HETATM   29  C   UNL     1      -0.605  -5.619  -0.689  1.00  0.00     0.001 A 
HETATM   30  C   UNL     1       0.274  -4.532  -0.691  1.00  0.00     0.014 A 
ENDBRANCH  22  25
ENDBRANCH   2  17
TORSDOF 6
