REMARK  5 active torsions:
REMARK  status: ('A' for Active; 'I' for Inactive)
REMARK    1  A    between atoms: C_2  and  C_3 
REMARK    2  A    between atoms: C_6  and  C_20 
REMARK    3  A    between atoms: C_8  and  S_9 
REMARK    4  A    between atoms: S_9  and  N_12 
REMARK    5  A    between atoms: N_12  and  C_13 
ROOT
HETATM    1  C   UNL     1       1.012  -0.158  -0.002  1.00  0.00     0.010 C 
HETATM    2  C   UNL     1       2.458   0.194   0.343  1.00  0.00     0.035 C 
ENDROOT
BRANCH   2   3
HETATM    3  C   UNL     1       2.895   1.418  -0.422  1.00  0.00    -0.036 C 
HETATM    4  C   UNL     1       2.689   2.667   0.205  1.00  0.00     0.009 C 
HETATM    5  C   UNL     1       2.911   3.872  -0.481  1.00  0.00     0.014 C 
HETATM    6  C   UNL     1       3.305   3.870  -1.823  1.00  0.00    -0.006 C 
HETATM    7  C   UNL     1       3.464   2.635  -2.450  1.00  0.00     0.039 C 
HETATM    8  C   UNL     1       3.351   1.415  -1.750  1.00  0.00     0.082 C 
BRANCH   6   9
HETATM    9  C   UNL     1       3.395   5.190  -2.545  1.00  0.00     0.065 A 
HETATM   10  C   UNL     1       4.424   5.429  -3.619  1.00  0.00    -0.017 A 
HETATM   11  C   UNL     1       5.480   4.428  -4.019  1.00  0.00     0.042 C 
HETATM   12  C   UNL     1       4.402   6.654  -4.183  1.00  0.00     0.020 A 
HETATM   13  C   UNL     1       6.227   4.774  -5.310  1.00  0.00     0.005 C 
HETATM   14  C   UNL     1       6.631   6.234  -5.325  1.00  0.00     0.005 C 
HETATM   15  C   UNL     1       5.393   7.119  -5.223  1.00  0.00     0.045 C 
HETATM   16  C   UNL     1       3.400   7.681  -3.780  1.00  0.00     0.268 A 
HETATM   17  O   UNL     1       3.384   8.771  -4.349  1.00  0.00    -0.266 OA
HETATM   18  N   UNL     1       2.558   7.329  -2.746  1.00  0.00    -0.261 N 
HETATM   19  C   UNL     1       1.585   8.282  -2.245  1.00  0.00     0.181 C 
HETATM   20  N   UNL     1       2.552   6.099  -2.148  1.00  0.00    -0.295 N 
HETATM   21  HN  UNL     1       1.892   5.896  -1.397  1.00  0.00     0.187 HD
ENDBRANCH   6   9
BRANCH   8  22
HETATM   22  S   UNL     1       3.684  -0.063  -2.722  1.00  0.00     0.246 S 
HETATM   23  O   UNL     1       3.040  -1.204  -2.109  1.00  0.00    -0.206 OA
HETATM   24  O   UNL     1       3.427   0.274  -4.105  1.00  0.00    -0.206 OA
BRANCH  22  25
HETATM   25  N   UNL     1       5.364  -0.305  -2.474  1.00  0.00    -0.181 NA
HETATM   26  HN  UNL     1       5.458  -1.175  -1.945  1.00  0.00     0.146 HD
BRANCH  25  27
HETATM   27  C   UNL     1       6.172  -0.300  -3.665  1.00  0.00     0.028 A 
HETATM   28  C   UNL     1       6.917   0.852  -3.932  1.00  0.00     0.025 A 
HETATM   29  C   UNL     1       7.639   0.965  -5.122  1.00  0.00     0.002 A 
HETATM   30  C   UNL     1       7.613  -0.070  -6.053  1.00  0.00     0.001 A 
HETATM   31  C   UNL     1       6.897  -1.236  -5.776  1.00  0.00     0.008 A 
HETATM   32  C   UNL     1       6.179  -1.373  -4.576  1.00  0.00    -0.040 A 
HETATM   33  C   UNL     1       5.429  -2.651  -4.327  1.00  0.00     0.050 C 
ENDBRANCH  25  27
ENDBRANCH  22  25
ENDBRANCH   8  22
ENDBRANCH   2   3
TORSDOF 5
