REMARK  4 active torsions:
REMARK  status: ('A' for Active; 'I' for Inactive)
REMARK    1  A    between atoms: C_2  and  C_3 
REMARK    2  A    between atoms: C_6  and  C_22 
REMARK    3  A    between atoms: C_8  and  S_9 
REMARK    4  A    between atoms: S_9  and  N_12 
ROOT
HETATM    1  C   UNL     1       0.768  -0.057  -0.172  1.00  0.00     0.010 C 
HETATM    2  C   UNL     1       2.272   0.107   0.041  1.00  0.00     0.035 C 
ENDROOT
BRANCH   2   3
HETATM    3  C   UNL     1       2.836   1.163  -0.880  1.00  0.00    -0.036 C 
HETATM    4  C   UNL     1       2.674   2.509  -0.498  1.00  0.00     0.009 C 
HETATM    5  C   UNL     1       2.934   3.556  -1.391  1.00  0.00     0.014 C 
HETATM    6  C   UNL     1       3.403   3.279  -2.677  1.00  0.00    -0.006 C 
HETATM    7  C   UNL     1       3.762   1.966  -2.982  1.00  0.00     0.039 C 
HETATM    8  C   UNL     1       3.425   0.901  -2.130  1.00  0.00     0.082 C 
BRANCH   6   9
HETATM    9  C   UNL     1       3.455   4.391  -3.687  1.00  0.00     0.065 A 
HETATM   10  C   UNL     1       3.051   4.123  -5.113  1.00  0.00    -0.017 A 
HETATM   11  C   UNL     1       2.545   2.784  -5.596  1.00  0.00     0.042 C 
HETATM   12  C   UNL     1       3.117   5.173  -5.951  1.00  0.00     0.020 A 
HETATM   13  C   UNL     1       1.870   2.809  -6.969  1.00  0.00     0.005 C 
HETATM   14  C   UNL     1       2.691   3.648  -7.933  1.00  0.00     0.005 C 
HETATM   15  C   UNL     1       2.788   5.085  -7.423  1.00  0.00     0.045 C 
HETATM   16  C   UNL     1       3.518   6.521  -5.467  1.00  0.00     0.268 A 
HETATM   17  O   UNL     1       3.546   7.468  -6.251  1.00  0.00    -0.266 OA
HETATM   18  N   UNL     1       3.829   6.616  -4.121  1.00  0.00    -0.261 N 
HETATM   19  C   UNL     1       4.224   7.894  -3.555  1.00  0.00     0.181 C 
HETATM   20  N   UNL     1       3.803   5.562  -3.245  1.00  0.00    -0.295 N 
HETATM   21  HN  UNL     1       4.052   5.695  -2.265  1.00  0.00     0.187 HD
ENDBRANCH   6   9
BRANCH   8  22
HETATM   22  S   UNL     1       3.600  -0.748  -2.814  1.00  0.00     0.244 S 
HETATM   23  O   UNL     1       2.341  -1.440  -2.625  1.00  0.00    -0.206 OA
HETATM   24  O   UNL     1       4.162  -0.621  -4.145  1.00  0.00    -0.206 OA
BRANCH  22  25
HETATM   25  N   UNL     1       4.781  -1.498  -1.852  1.00  0.00    -0.202 NA
HETATM   26  C   UNL     1       6.154  -0.934  -1.946  1.00  0.00     0.112 C 
HETATM   27  C   UNL     1       6.966  -1.442  -0.752  1.00  0.00     0.054 C 
HETATM   28  C   UNL     1       6.947  -2.948  -0.669  1.00  0.00    -0.050 A 
HETATM   29  C   UNL     1       7.928  -3.625   0.069  1.00  0.00     0.007 A 
HETATM   30  C   UNL     1       5.919  -3.677  -1.296  1.00  0.00    -0.038 A 
HETATM   31  C   UNL     1       7.918  -5.018   0.141  1.00  0.00     0.001 A 
HETATM   32  C   UNL     1       6.931  -5.744  -0.519  1.00  0.00     0.001 A 
HETATM   33  C   UNL     1       5.934  -5.078  -1.233  1.00  0.00     0.009 A 
HETATM   34  C   UNL     1       4.820  -2.975  -2.070  1.00  0.00     0.146 C 
ENDBRANCH  22  25
ENDBRANCH   8  22
ENDBRANCH   2   3
TORSDOF 4
