REMARK  6 active torsions:
REMARK  status: ('A' for Active; 'I' for Inactive)
REMARK    1  A    between atoms: C_2  and  N_3 
REMARK    2  A    between atoms: C_12  and  C_13 
REMARK    3  A    between atoms: C_16  and  O_31 
REMARK    4  A    between atoms: C_17  and  S_19 
REMARK    5  A    between atoms: S_19  and  N_22 
REMARK    6  A    between atoms: N_22  and  C_23 
ROOT
HETATM    1  C   UNL     1       1.098   0.359  -0.531  1.00  0.00     0.028 C 
HETATM    2  C   UNL     1       0.989  -0.831  -1.468  1.00  0.00     0.148 C 
ENDROOT
BRANCH   2   3
HETATM    3  N   UNL     1       2.286  -1.418  -1.786  1.00  0.00    -0.257 N 
HETATM    4  C   UNL     1       2.797  -2.405  -0.964  1.00  0.00     0.268 A 
HETATM    5  O   UNL     1       2.274  -2.759   0.092  1.00  0.00    -0.266 OA
HETATM    6  C   UNL     1       4.032  -3.076  -1.447  1.00  0.00     0.020 A 
HETATM    7  C   UNL     1       4.471  -4.256  -0.617  1.00  0.00     0.045 C 
HETATM    8  C   UNL     1       4.662  -2.670  -2.566  1.00  0.00    -0.017 A 
HETATM    9  C   UNL     1       5.457  -5.158  -1.352  1.00  0.00     0.005 C 
HETATM   10  C   UNL     1       6.545  -4.312  -1.998  1.00  0.00     0.005 C 
HETATM   11  C   UNL     1       5.936  -3.340  -3.017  1.00  0.00     0.042 C 
HETATM   12  C   UNL     1       4.013  -1.532  -3.306  1.00  0.00     0.065 A 
HETATM   13  N   UNL     1       2.908  -0.963  -2.919  1.00  0.00    -0.294 N 
HETATM   14  HN  UNL     1       2.511  -0.189  -3.452  1.00  0.00     0.187 HD
BRANCH  12  15
HETATM   15  C   UNL     1       4.580  -1.011  -4.602  1.00  0.00    -0.006 A 
HETATM   16  C   UNL     1       4.466   0.355  -4.896  1.00  0.00     0.016 A 
HETATM   17  C   UNL     1       4.781   0.857  -6.173  1.00  0.00     0.039 A 
HETATM   18  C   UNL     1       5.185   0.001  -7.204  1.00  0.00     0.091 A 
HETATM   19  C   UNL     1       5.293  -1.363  -6.911  1.00  0.00     0.108 A 
HETATM   20  C   UNL     1       5.012  -1.857  -5.620  1.00  0.00     0.041 A 
BRANCH  18  21
HETATM   21  O   UNL     1       5.433   0.403  -8.481  1.00  0.00    -0.354 OA
HETATM   22  C   UNL     1       5.304   1.778  -8.817  1.00  0.00     0.210 C 
ENDBRANCH  18  21
BRANCH  19  23
HETATM   23  S   UNL     1       5.741  -2.584  -8.132  1.00  0.00     0.248 S 
HETATM   24  O   UNL     1       6.338  -1.953  -9.289  1.00  0.00    -0.205 OA
HETATM   25  O   UNL     1       6.447  -3.643  -7.438  1.00  0.00    -0.205 OA
BRANCH  23  26
HETATM   26  N   UNL     1       4.215  -3.136  -8.641  1.00  0.00    -0.181 NA
HETATM   27  HN  UNL     1       4.143  -3.050  -9.654  1.00  0.00     0.146 HD
BRANCH  26  28
HETATM   28  C   UNL     1       3.712  -4.343  -8.063  1.00  0.00     0.028 A 
HETATM   29  C   UNL     1       2.893  -4.248  -6.936  1.00  0.00     0.025 A 
HETATM   30  C   UNL     1       2.432  -5.403  -6.297  1.00  0.00     0.008 A 
HETATM   31  C   UNL     1       2.784  -6.664  -6.781  1.00  0.00    -0.061 A 
HETATM   32  C   UNL     1       2.320  -7.917  -6.096  1.00  0.00     0.048 C 
HETATM   33  C   UNL     1       3.582  -6.752  -7.930  1.00  0.00     0.015 A 
HETATM   34  C   UNL     1       4.049  -5.598  -8.584  1.00  0.00    -0.039 A 
HETATM   35  C   UNL     1       4.916  -5.751  -9.801  1.00  0.00     0.050 C 
ENDBRANCH  26  28
ENDBRANCH  23  26
ENDBRANCH  19  23
ENDBRANCH  12  15
ENDBRANCH   2   3
TORSDOF 6
