REMARK  3 active torsions:
REMARK  status: ('A' for Active; 'I' for Inactive)
REMARK    1  A    between atoms: N_19  and  C_20 
REMARK    2  A    between atoms: C_20  and  C_21 
REMARK    3  A    between atoms: C_21  and  O_23 
ROOT
HETATM    1  C   UNL     1      -3.264  -1.075  -0.596  1.00  0.00     0.001 A 
HETATM    2  C   UNL     1      -3.254  -0.942   0.798  1.00  0.00     0.001 A 
HETATM    3  C   UNL     1      -2.209  -0.276   1.455  1.00  0.00     0.010 A 
HETATM    4  C   UNL     1      -1.165   0.265   0.708  1.00  0.00    -0.026 A 
HETATM    5  C   UNL     1      -1.180   0.094  -0.710  1.00  0.00    -0.041 A 
HETATM    6  C   UNL     1      -2.222  -0.559  -1.360  1.00  0.00     0.008 A 
HETATM    7  C   UNL     1       0.033   0.688  -1.420  1.00  0.00     0.067 C 
HETATM    8  C   UNL     1       1.278   0.103  -0.745  1.00  0.00    -0.041 A 
HETATM    9  C   UNL     1       2.282  -0.580  -1.419  1.00  0.00     0.008 A 
HETATM   10  C   UNL     1       3.325  -1.136  -0.683  1.00  0.00     0.001 A 
HETATM   11  C   UNL     1       3.356  -1.014   0.712  1.00  0.00     0.001 A 
HETATM   12  C   UNL     1       2.352  -0.317   1.393  1.00  0.00     0.010 A 
HETATM   13  C   UNL     1       1.311   0.261   0.671  1.00  0.00    -0.026 A 
HETATM   14  C   UNL     1       0.094   1.037   1.202  1.00  0.00     0.086 C 
HETATM   15  C   UNL     1       0.053   2.412   0.460  1.00  0.00     0.121 C 
HETATM   16  C   UNL     1      -0.050   2.186  -1.078  1.00  0.00     0.106 C 
HETATM   17  C   UNL     1       1.098   2.943  -1.666  1.00  0.00     0.233 C 
HETATM   18  O   UNL     1       1.432   2.911  -2.840  1.00  0.00    -0.272 OA
HETATM   19  N   UNL     1       1.712   3.644  -0.672  1.00  0.00    -0.278 N 
HETATM   20  C   UNL     1       1.281   3.295   0.577  1.00  0.00     0.234 C 
HETATM   21  O   UNL     1       1.807   3.645   1.622  1.00  0.00    -0.272 OA
HETATM   22 BR   UNL     1       0.088   1.298   3.124  1.00  0.00    -0.074 Br
ENDROOT
BRANCH  19  23
HETATM   23  C   UNL     1       2.832   4.525  -0.939  1.00  0.00     0.244 C 
BRANCH  23  24
HETATM   24  C   UNL     1       2.351   5.863  -1.489  1.00  0.00     0.158 C 
HETATM   25  O   UNL     1       1.181   6.214  -1.578  1.00  0.00    -0.649 OA
BRANCH  24  26
HETATM   26  O   UNL     1       3.371   6.671  -1.872  1.00  0.00    -0.775 OA
HETATM   27  H   UNL     1       4.264   6.290  -1.764  1.00  0.00     0.167 HD
ENDBRANCH  24  26
ENDBRANCH  23  24
ENDBRANCH  19  23
TORSDOF 3
