REMARK  6 active torsions:
REMARK  status: ('A' for Active; 'I' for Inactive)
REMARK    1  A    between atoms: C_4  and  C_7 
REMARK    2  A    between atoms: C_7  and  C_9 
REMARK    3  A    between atoms: C_9  and  O_10 
REMARK    4  A    between atoms: O_10  and  C_11 
REMARK    5  A    between atoms: C_11  and  C_13 
REMARK    6  A    between atoms: C_16  and  N_19 
ROOT
HETATM    1  C   UNL     1       0.229   1.936   3.533  1.00  0.00     0.000 A 
HETATM    2  C   UNL     1       1.202   2.926   3.415  1.00  0.00     0.001 A 
HETATM    3  C   UNL     1       2.397   2.655   2.746  1.00  0.00     0.015 A 
HETATM    4  C   UNL     1       2.627   1.388   2.187  1.00  0.00     0.012 A 
HETATM    5  C   UNL     1       1.645   0.398   2.309  1.00  0.00     0.015 A 
HETATM    6  C   UNL     1       0.447   0.674   2.981  1.00  0.00     0.001 A 
ENDROOT
BRANCH   4   7
HETATM    7  C   UNL     1       3.929   1.148   1.477  1.00  0.00     0.183 C 
HETATM    8  O   UNL     1       4.747   2.064   1.398  1.00  0.00    -0.290 OA
BRANCH   7   9
HETATM    9  C   UNL     1       4.171  -0.229   0.873  1.00  0.00     0.263 C 
BRANCH   9  10
HETATM   10  O   UNL     1       5.442  -0.289   0.208  1.00  0.00    -0.310 OA
BRANCH  10  11
HETATM   11  C   UNL     1       6.329  -1.195   0.674  1.00  0.00     0.293 C 
HETATM   12  O   UNL     1       6.135  -1.989   1.581  1.00  0.00    -0.259 OA
BRANCH  11  13
HETATM   13  C   UNL     1       7.606  -1.127  -0.099  1.00  0.00     0.039 A 
HETATM   14  C   UNL     1       8.622  -2.021   0.236  1.00  0.00     0.020 A 
HETATM   15  C   UNL     1       9.853  -1.987  -0.438  1.00  0.00     0.031 A 
HETATM   16  C   UNL     1      10.109  -1.083  -1.484  1.00  0.00     0.045 A 
HETATM   17  C   UNL     1       9.073  -0.198  -1.822  1.00  0.00     0.031 A 
HETATM   18  C   UNL     1       7.842  -0.213  -1.133  1.00  0.00     0.020 A 
BRANCH  16  19
HETATM   19  N   UNL     1      11.393  -1.016  -2.116  1.00  0.00    -0.252 N 
HETATM   20  C   UNL     1      12.545  -1.485  -1.543  1.00  0.00     0.238 C 
HETATM   21  O   UNL     1      12.696  -2.304  -0.648  1.00  0.00    -0.272 OA
HETATM   22  C   UNL     1      13.710  -0.870  -2.243  1.00  0.00     0.122 C 
HETATM   23  C   UNL     1      13.178  -0.712  -3.674  1.00  0.00     0.122 C 
HETATM   24  C   UNL     1      14.187   0.524  -1.725  1.00  0.00     0.086 C 
HETATM   25  C   UNL     1      11.660  -0.557  -3.398  1.00  0.00     0.238 C 
HETATM   26  C   UNL     1      13.888   0.513  -4.346  1.00  0.00     0.086 C 
HETATM   27  O   UNL     1      10.855  -0.173  -4.235  1.00  0.00    -0.272 OA
HETATM   28  C   UNL     1      15.379   0.606  -3.896  1.00  0.00    -0.025 A 
HETATM   29  C   UNL     1      13.206   1.719  -3.700  1.00  0.00    -0.025 A 
HETATM   30 BR   UNL     1      13.691   0.363  -6.269  1.00  0.00    -0.074 Br
HETATM   31  C   UNL     1      16.508   0.792  -4.700  1.00  0.00     0.010 A 
HETATM   32  C   UNL     1      15.535   0.662  -2.469  1.00  0.00    -0.025 A 
HETATM   33  C   UNL     1      17.760   1.010  -4.112  1.00  0.00     0.001 A 
HETATM   34  C   UNL     1      17.903   1.041  -2.723  1.00  0.00     0.001 A 
HETATM   35  C   UNL     1      16.795   0.867  -1.898  1.00  0.00     0.010 A 
HETATM   36  C   UNL     1      13.290   1.680  -2.263  1.00  0.00    -0.025 A 
HETATM   37  C   UNL     1      12.461   2.697  -4.358  1.00  0.00     0.010 A 
HETATM   38  C   UNL     1      12.575   2.621  -1.530  1.00  0.00     0.010 A 
HETATM   39  C   UNL     1      11.794   3.573  -2.204  1.00  0.00     0.001 A 
HETATM   40  C   UNL     1      11.745   3.613  -3.600  1.00  0.00     0.001 A 
HETATM   41 BR   UNL     1      14.375   0.515   0.203  1.00  0.00    -0.074 Br
ENDBRANCH  16  19
ENDBRANCH  11  13
ENDBRANCH  10  11
ENDBRANCH   9  10
ENDBRANCH   7   9
ENDBRANCH   4   7
TORSDOF 6
