REMARK  7 active torsions:
REMARK  status: ('A' for Active; 'I' for Inactive)
REMARK    1  A    between atoms: O_2  and  C_3 
REMARK    2  A    between atoms: C_6  and  C_9 
REMARK    3  A    between atoms: C_9  and  C_11 
REMARK    4  A    between atoms: C_11  and  O_12 
REMARK    5  A    between atoms: O_12  and  C_13 
REMARK    6  A    between atoms: C_13  and  C_15 
REMARK    7  A    between atoms: C_15  and  N_16 
ROOT
HETATM    1  C   UNL     1      -2.768  11.242  -2.771  1.00  0.00     0.210 C 
HETATM    2  O   UNL     1      -2.169  11.219  -4.065  1.00  0.00    -0.356 OA
ENDROOT
BRANCH   2   3
HETATM    3  C   UNL     1      -0.927  10.651  -4.131  1.00  0.00     0.068 A 
HETATM    4  C   UNL     1      -0.453   9.658  -3.278  1.00  0.00     0.037 A 
HETATM    5  C   UNL     1       0.847   9.161  -3.436  1.00  0.00     0.018 A 
HETATM    6  C   UNL     1       1.693   9.641  -4.451  1.00  0.00     0.012 A 
HETATM    7  C   UNL     1       1.200  10.614  -5.326  1.00  0.00     0.018 A 
HETATM    8  C   UNL     1      -0.107  11.107  -5.168  1.00  0.00     0.037 A 
BRANCH   6   9
HETATM    9  C   UNL     1       3.089   9.090  -4.531  1.00  0.00     0.183 C 
HETATM   10  O   UNL     1       3.441   8.235  -3.715  1.00  0.00    -0.290 OA
BRANCH   9  11
HETATM   11  C   UNL     1       4.051   9.624  -5.595  1.00  0.00     0.262 C 
BRANCH  11  12
HETATM   12  O   UNL     1       5.351   9.005  -5.522  1.00  0.00    -0.312 OA
BRANCH  12  13
HETATM   13  C   UNL     1       5.505   7.862  -6.253  1.00  0.00     0.277 C 
HETATM   14  O   UNL     1       4.658   7.421  -7.015  1.00  0.00    -0.263 OA
BRANCH  13  15
HETATM   15  C   UNL     1       6.879   7.225  -6.056  1.00  0.00     0.245 C 
BRANCH  15  16
HETATM   16  N   UNL     1       7.883   7.747  -6.975  1.00  0.00    -0.278 N 
HETATM   17  C   UNL     1       8.774   8.718  -6.565  1.00  0.00     0.234 C 
HETATM   18  O   UNL     1       8.725   9.404  -5.560  1.00  0.00    -0.272 OA
HETATM   19  C   UNL     1       9.799   8.757  -7.654  1.00  0.00     0.122 C 
HETATM   20  C   UNL     1       8.789   8.701  -8.816  1.00  0.00     0.122 C 
HETATM   21  C   UNL     1      10.788   9.898  -7.835  1.00  0.00     0.086 C 
HETATM   22  C   UNL     1       8.049   7.459  -8.339  1.00  0.00     0.234 C 
HETATM   23  C   UNL     1       9.373   9.423 -10.048  1.00  0.00     0.086 C 
HETATM   24  O   UNL     1       7.655   6.515  -8.979  1.00  0.00    -0.272 OA
HETATM   25  C   UNL     1      10.890   9.263 -10.252  1.00  0.00    -0.025 A 
HETATM   26  C   UNL     1       9.246  10.910  -9.515  1.00  0.00    -0.025 A 
HETATM   27 BR   UNL     1       8.303   9.039 -11.603  1.00  0.00    -0.074 Br
HETATM   28  C   UNL     1      11.557   9.219 -11.485  1.00  0.00     0.010 A 
HETATM   29  C   UNL     1      11.657   9.487  -9.062  1.00  0.00    -0.025 A 
HETATM   30  C   UNL     1      12.953   9.297 -11.537  1.00  0.00     0.001 A 
HETATM   31  C   UNL     1      13.698   9.407 -10.365  1.00  0.00     0.001 A 
HETATM   32  C   UNL     1      13.057   9.509  -9.130  1.00  0.00     0.010 A 
HETATM   33  C   UNL     1       9.970  11.118  -8.278  1.00  0.00    -0.025 A 
HETATM   34  C   UNL     1       8.421  11.916 -10.008  1.00  0.00     0.010 A 
HETATM   35  C   UNL     1       9.814  12.301  -7.564  1.00  0.00     0.010 A 
HETATM   36  C   UNL     1       8.971  13.286  -8.067  1.00  0.00     0.001 A 
HETATM   37  C   UNL     1       8.292  13.100  -9.277  1.00  0.00     0.001 A 
HETATM   38 BR   UNL     1      11.844  10.120  -6.224  1.00  0.00    -0.074 Br
ENDBRANCH  15  16
ENDBRANCH  13  15
ENDBRANCH  12  13
ENDBRANCH  11  12
ENDBRANCH   9  11
ENDBRANCH   6   9
ENDBRANCH   2   3
TORSDOF 7
