REMARK  7 active torsions:
REMARK  status: ('A' for Active; 'I' for Inactive)
REMARK    1  A    between atoms: C_2  and  C_3 
REMARK    2  A    between atoms: C_3  and  C_4 
REMARK    3  A    between atoms: C_4  and  C_5 
REMARK    4  A    between atoms: C_5  and  O_6 
REMARK    5  A    between atoms: O_6  and  C_7 
REMARK    6  A    between atoms: C_7  and  C_9 
REMARK    7  A    between atoms: C_14  and  N_15 
ROOT
HETATM    1  C   UNL     1      16.929  -9.354   1.261  1.00  0.00     0.005 C 
HETATM    2  C   UNL     1      16.038  -8.957   0.093  1.00  0.00    -0.004 C 
ENDROOT
BRANCH   2   3
HETATM    3  C   UNL     1      15.152  -7.772   0.456  1.00  0.00     0.002 C 
BRANCH   3   4
HETATM    4  C   UNL     1      14.232  -7.345  -0.697  1.00  0.00     0.027 C 
BRANCH   4   5
HETATM    5  C   UNL     1      13.396  -6.159  -0.262  1.00  0.00     0.179 C 
BRANCH   5   6
HETATM    6  O   UNL     1      12.609  -5.636  -1.338  1.00  0.00    -0.317 OA
BRANCH   6   7
HETATM    7  C   UNL     1      11.275  -5.901  -1.241  1.00  0.00     0.295 C 
HETATM    8  O   UNL     1      10.798  -6.951  -0.861  1.00  0.00    -0.259 OA
BRANCH   7   9
HETATM    9  C   UNL     1      10.500  -4.656  -1.495  1.00  0.00     0.066 A 
HETATM   10  C   UNL     1      11.154  -3.421  -1.297  1.00  0.00     0.020 A 
HETATM   11  C   UNL     1      10.447  -2.223  -1.319  1.00  0.00     0.001 A 
HETATM   12  C   UNL     1       9.077  -2.241  -1.547  1.00  0.00     0.002 A 
HETATM   13  C   UNL     1       8.418  -3.452  -1.783  1.00  0.00     0.031 A 
HETATM   14  C   UNL     1       9.117  -4.672  -1.770  1.00  0.00     0.061 A 
BRANCH  14  15
HETATM   15  N   UNL     1       8.382  -5.880  -1.905  1.00  0.00    -0.251 N 
HETATM   16  C   UNL     1       7.728  -6.399  -0.824  1.00  0.00     0.238 C 
HETATM   17  O   UNL     1       7.558  -5.887   0.274  1.00  0.00    -0.272 OA
HETATM   18  C   UNL     1       7.016  -7.630  -1.272  1.00  0.00     0.122 C 
HETATM   19  C   UNL     1       6.554  -7.220  -2.681  1.00  0.00     0.122 C 
HETATM   20  C   UNL     1       7.850  -8.942  -1.395  1.00  0.00     0.086 C 
HETATM   21  C   UNL     1       7.691  -6.225  -3.055  1.00  0.00     0.238 C 
HETATM   22  C   UNL     1       6.392  -8.518  -3.553  1.00  0.00     0.086 C 
HETATM   23  O   UNL     1       7.882  -5.773  -4.176  1.00  0.00    -0.272 OA
HETATM   24  C   UNL     1       5.890  -9.725  -2.695  1.00  0.00    -0.025 A 
HETATM   25  C   UNL     1       7.827  -8.877  -3.914  1.00  0.00    -0.025 A 
HETATM   26 BR   UNL     1       5.216  -8.120  -5.041  1.00  0.00    -0.074 Br
HETATM   27  C   UNL     1       4.892 -10.644  -3.008  1.00  0.00     0.010 A 
HETATM   28  C   UNL     1       6.705  -9.968  -1.536  1.00  0.00    -0.025 A 
HETATM   29  C   UNL     1       4.664 -11.749  -2.158  1.00  0.00     0.001 A 
HETATM   30  C   UNL     1       5.420 -11.939  -1.002  1.00  0.00     0.001 A 
HETATM   31  C   UNL     1       6.441 -11.047  -0.690  1.00  0.00     0.010 A 
HETATM   32  C   UNL     1       8.648  -9.027  -2.739  1.00  0.00    -0.025 A 
HETATM   33  C   UNL     1       8.360  -8.939  -5.202  1.00  0.00     0.010 A 
HETATM   34  C   UNL     1      10.017  -9.189  -2.919  1.00  0.00     0.010 A 
HETATM   35  C   UNL     1      10.550  -9.188  -4.217  1.00  0.00     0.001 A 
HETATM   36  C   UNL     1       9.732  -9.077  -5.347  1.00  0.00     0.001 A 
HETATM   37 BR   UNL     1       8.906  -9.242   0.199  1.00  0.00    -0.074 Br
ENDBRANCH  14  15
ENDBRANCH   7   9
ENDBRANCH   6   7
ENDBRANCH   5   6
ENDBRANCH   4   5
ENDBRANCH   3   4
ENDBRANCH   2   3
TORSDOF 7
