REMARK  3 active torsions:
REMARK  status: ('A' for Active; 'I' for Inactive)
REMARK    1  A    between atoms: O_2  and  C_3 
REMARK    2  A    between atoms: C_3  and  C_5 
REMARK    3  A    between atoms: C_10  and  N_11 
ROOT
HETATM    1  C   UNL     1       6.723  -4.123  -4.089  1.00  0.00     0.213 C 
HETATM    2  O   UNL     1       6.515  -3.122  -3.088  1.00  0.00    -0.322 OA
ENDROOT
BRANCH   2   3
HETATM    3  C   UNL     1       5.432  -3.258  -2.273  1.00  0.00     0.295 C 
HETATM    4  O   UNL     1       4.663  -4.200  -2.303  1.00  0.00    -0.259 OA
BRANCH   3   5
HETATM    5  C   UNL     1       5.442  -2.124  -1.280  1.00  0.00     0.066 A 
HETATM    6  C   UNL     1       6.126  -0.950  -1.677  1.00  0.00     0.020 A 
HETATM    7  C   UNL     1       6.401   0.066  -0.769  1.00  0.00     0.001 A 
HETATM    8  C   UNL     1       5.997  -0.077   0.549  1.00  0.00     0.002 A 
HETATM    9  C   UNL     1       5.275  -1.206   0.951  1.00  0.00     0.031 A 
HETATM   10  C   UNL     1       4.942  -2.235   0.050  1.00  0.00     0.061 A 
BRANCH  10  11
HETATM   11  N   UNL     1       4.104  -3.303   0.497  1.00  0.00    -0.251 N 
HETATM   12  C   UNL     1       3.062  -3.746  -0.265  1.00  0.00     0.237 C 
HETATM   13  O   UNL     1       2.444  -3.121  -1.118  1.00  0.00    -0.272 OA
HETATM   14  C   UNL     1       2.588  -5.026   0.323  1.00  0.00     0.107 C 
HETATM   15  C   UNL     1       3.431  -6.296  -0.004  1.00  0.00     0.067 C 
HETATM   16  C   UNL     1       2.710  -4.734   1.826  1.00  0.00     0.121 C 
HETATM   17  C   UNL     1       2.474  -7.378   0.498  1.00  0.00    -0.041 A 
HETATM   18  C   UNL     1       4.687  -6.426   0.891  1.00  0.00    -0.041 A 
HETATM   19  C   UNL     1       1.949  -8.389  -0.298  1.00  0.00     0.008 A 
HETATM   20  C   UNL     1       2.155  -7.248   1.889  1.00  0.00    -0.026 A 
HETATM   21  C   UNL     1       1.094  -9.317   0.288  1.00  0.00     0.001 A 
HETATM   22  C   UNL     1       0.779  -9.223   1.651  1.00  0.00     0.001 A 
HETATM   23  C   UNL     1       1.305  -8.197   2.452  1.00  0.00     0.010 A 
HETATM   24  C   UNL     1       2.950  -6.094   2.579  1.00  0.00     0.086 C 
HETATM   25  C   UNL     1       4.420  -6.401   2.300  1.00  0.00    -0.026 A 
HETATM   26 BR   UNL     1       2.485  -5.879   4.445  1.00  0.00    -0.074 Br
HETATM   27  C   UNL     1       5.449  -6.523   3.228  1.00  0.00     0.010 A 
HETATM   28  C   UNL     1       6.755  -6.618   2.761  1.00  0.00     0.001 A 
HETATM   29  C   UNL     1       7.023  -6.615   1.385  1.00  0.00     0.001 A 
HETATM   30  C   UNL     1       5.993  -6.537   0.441  1.00  0.00     0.008 A 
HETATM   31  C   UNL     1       3.894  -3.726   1.804  1.00  0.00     0.238 C 
HETATM   32  O   UNL     1       4.490  -3.364   2.811  1.00  0.00    -0.272 OA
ENDBRANCH  10  11
ENDBRANCH   3   5
ENDBRANCH   2   3
TORSDOF 3
