REMARK  3 active torsions:
REMARK  status: ('A' for Active; 'I' for Inactive)
REMARK    1  A    between atoms: C_5  and  N_9 
REMARK       I    between atoms: N_9  and  C_10 
REMARK    2  A    between atoms: C_10  and  C_12 
REMARK    3  A    between atoms: C_14  and  C_15 
ROOT
HETATM    1  C   UNL     1       1.070  -0.084   0.531  1.00  0.00     0.048 C 
HETATM    2  C   UNL     1       2.539  -0.052   0.235  1.00  0.00    -0.061 A 
HETATM    3  C   UNL     1       3.330   0.989   0.700  1.00  0.00     0.009 A 
HETATM    4  C   UNL     1       4.690   1.039   0.387  1.00  0.00     0.030 A 
HETATM    5  C   UNL     1       5.312   0.061  -0.405  1.00  0.00     0.041 A 
HETATM    6  C   UNL     1       4.524  -1.024  -0.850  1.00  0.00    -0.035 A 
HETATM    7  C   UNL     1       5.027  -2.190  -1.659  1.00  0.00     0.050 C 
HETATM    8  C   UNL     1       3.148  -1.065  -0.512  1.00  0.00     0.015 A 
ENDROOT
BRANCH   5   9
HETATM    9  N   UNL     1       6.686   0.175  -0.775  1.00  0.00    -0.322 N 
HETATM   10  C   UNL     1       7.574   1.162  -0.353  1.00  0.00     0.257 C 
HETATM   11  O   UNL     1       7.333   2.045   0.461  1.00  0.00    -0.267 OA
HETATM   12  HN  UNL     1       7.026  -0.506  -1.436  1.00  0.00     0.169 HD
BRANCH  10  13
HETATM   13  C   UNL     1       8.965   1.120  -0.901  1.00  0.00     0.047 A 
HETATM   14  C   UNL     1       9.580  -0.122  -1.033  1.00  0.00     0.049 A 
HETATM   15  C   UNL     1      10.914  -0.162  -1.390  1.00  0.00     0.051 A 
HETATM   16  N   UNL     1      11.653   0.960  -1.568  1.00  0.00    -0.354 N 
HETATM   17  C   UNL     1      11.080   2.177  -1.436  1.00  0.00     0.050 A 
HETATM   18  HN  UNL     1      12.643   0.886  -1.802  1.00  0.00     0.166 HD
HETATM   19  C   UNL     1      11.864   3.336  -1.596  1.00  0.00    -0.033 A 
HETATM   20  C   UNL     1       9.708   2.318  -1.128  1.00  0.00     0.008 A 
HETATM   21  C   UNL     1      13.344   3.272  -1.882  1.00  0.00     0.050 C 
HETATM   22  C   UNL     1      11.302   4.621  -1.477  1.00  0.00     0.028 A 
HETATM   23  C   UNL     1       9.952   4.761  -1.216  1.00  0.00     0.012 A 
HETATM   24  C   UNL     1       9.162   3.628  -1.054  1.00  0.00     0.034 A 
HETATM   25 BR   UNL     1       9.191   6.483  -1.059  1.00  0.00    -0.051 Br
BRANCH  15  26
HETATM   26  C   UNL     1      11.655  -1.422  -1.552  1.00  0.00     0.031 A 
HETATM   27  C   UNL     1      12.999  -1.673  -1.332  1.00  0.00     0.021 A 
HETATM   28  C   UNL     1      13.359  -3.032  -1.580  1.00  0.00     0.008 A 
HETATM   29  C   UNL     1      12.285  -3.777  -2.009  1.00  0.00     0.050 A 
HETATM   30  S   UNL     1      10.861  -2.843  -2.114  1.00  0.00    -0.100 SA
ENDBRANCH  15  26
ENDBRANCH  10  13
ENDBRANCH   5   9
TORSDOF 3
