REMARK  5 active torsions:
REMARK  status: ('A' for Active; 'I' for Inactive)
REMARK    1  A    between atoms: C_2  and  C_3 
REMARK    2  A    between atoms: C_6  and  C_19 
REMARK    3  A    between atoms: C_8  and  S_9 
REMARK    4  A    between atoms: S_9  and  N_12 
REMARK    5  A    between atoms: N_28  and  C_29 
ROOT
HETATM    1  C   UNL     1       4.020   0.816  -0.640  1.00  0.00     0.010 C 
HETATM    2  C   UNL     1       3.221   0.057   0.392  1.00  0.00     0.035 C 
ENDROOT
BRANCH   2   3
HETATM    3  C   UNL     1       3.457  -1.414   0.478  1.00  0.00    -0.035 A 
HETATM    4  C   UNL     1       4.670  -1.826   1.056  1.00  0.00     0.009 A 
HETATM    5  C   UNL     1       4.936  -3.166   1.303  1.00  0.00     0.014 A 
HETATM    6  C   UNL     1       3.988  -4.154   1.020  1.00  0.00    -0.006 A 
HETATM    7  C   UNL     1       2.749  -3.732   0.468  1.00  0.00     0.039 A 
HETATM    8  C   UNL     1       2.490  -2.372   0.144  1.00  0.00     0.086 A 
BRANCH   6   9
HETATM    9  C   UNL     1       4.456  -5.571   1.312  1.00  0.00     0.065 A 
HETATM   10  C   UNL     1       3.950  -6.737   0.514  1.00  0.00    -0.017 A 
HETATM   11  C   UNL     1       2.937  -6.572  -0.581  1.00  0.00     0.042 C 
HETATM   12  C   UNL     1       4.477  -7.945   0.795  1.00  0.00     0.020 A 
HETATM   13  C   UNL     1       2.747  -7.790  -1.478  1.00  0.00     0.005 C 
HETATM   14  C   UNL     1       2.709  -9.049  -0.630  1.00  0.00     0.005 C 
HETATM   15  C   UNL     1       4.035  -9.214   0.111  1.00  0.00     0.045 C 
HETATM   16  C   UNL     1       5.560  -8.108   1.807  1.00  0.00     0.268 A 
HETATM   17  O   UNL     1       6.079  -9.210   1.985  1.00  0.00    -0.266 OA
HETATM   18  N   UNL     1       5.917  -6.957   2.490  1.00  0.00    -0.257 N 
HETATM   19  N   UNL     1       5.374  -5.715   2.238  1.00  0.00    -0.294 N 
HETATM   20  HN  UNL     1       5.687  -4.905   2.773  1.00  0.00     0.187 HD
BRANCH  18  21
HETATM   21  C   UNL     1       7.003  -7.016   3.469  1.00  0.00     0.148 C 
HETATM   22  C   UNL     1       8.363  -6.699   2.862  1.00  0.00     0.028 C 
ENDBRANCH  18  21
ENDBRANCH   6   9
BRANCH   8  23
HETATM   23  S   UNL     1       1.094  -1.977  -0.993  1.00  0.00     0.261 S 
HETATM   24  O   UNL     1       1.625  -1.112  -2.028  1.00  0.00    -0.200 OA
HETATM   25  O   UNL     1       0.525  -3.264  -1.351  1.00  0.00    -0.200 OA
BRANCH  23  26
HETATM   26  N   UNL     1      -0.123  -1.130  -0.154  1.00  0.00    -0.302 N 
HETATM   27  C   UNL     1      -0.804  -1.806   0.946  1.00  0.00     0.136 C 
HETATM   28  C   UNL     1      -0.182  -1.308   2.233  1.00  0.00     0.021 C 
HETATM   29  C   UNL     1      -0.268   0.211   2.382  1.00  0.00     0.004 C 
HETATM   30  C   UNL     1       0.019   1.032   1.123  1.00  0.00     0.026 C 
HETATM   31  C   UNL     1      -0.336   0.350  -0.213  1.00  0.00     0.092 C 
HETATM   32  C   UNL     1      -1.805   0.695  -0.526  1.00  0.00     0.033 C 
ENDBRANCH  23  26
ENDBRANCH   8  23
ENDBRANCH   2   3
TORSDOF 5
