REMARK  9 active torsions:
REMARK  status: ('A' for Active; 'I' for Inactive)
REMARK    1  A    between atoms: O_2  and  C_3 
REMARK    2  A    between atoms: C_4  and  N_13 
REMARK    3  A    between atoms: C_6  and  C_9 
REMARK    4  A    between atoms: C_14  and  C_39 
REMARK    5  A    between atoms: C_24  and  N_25 
REMARK    6  A    between atoms: N_28  and  C_31 
REMARK    7  A    between atoms: C_33  and  O_37 
REMARK    8  A    between atoms: C_39  and  C_40 
REMARK    9  A    between atoms: C_40  and  O_42 
ROOT
HETATM    1  N   UNL     1       1.310   2.584   0.657  1.00  0.00    -0.171 N 
HETATM    2  C   UNL     1       0.419   3.732   0.357  1.00  0.00     0.153 C 
HETATM    3  C   UNL     1      -1.042   3.505   0.595  1.00  0.00    -0.004 A 
HETATM    4  C   UNL     1      -1.508   2.204   0.665  1.00  0.00     0.096 A 
HETATM    5  C   UNL     1      -2.906   2.071   0.638  1.00  0.00     0.144 A 
HETATM    6  C   UNL     1      -3.772   3.186   0.537  1.00  0.00     0.045 A 
HETATM    7  C   UNL     1      -3.274   4.481   0.525  1.00  0.00     0.004 A 
HETATM    8  C   UNL     1      -1.902   4.640   0.590  1.00  0.00     0.012 A 
HETATM    9  F   UNL     1      -3.476   0.858   0.673  1.00  0.00    -0.204 F 
HETATM   10  N   UNL     1      -0.606   1.107   0.699  1.00  0.00    -0.188 N 
HETATM   11  HN  UNL     1      -0.976   0.157   0.733  1.00  0.00     0.184 HD
HETATM   12  C   UNL     1       0.703   1.293   0.687  1.00  0.00     0.684 C 
ENDROOT
BRANCH  12  13
HETATM   13  N   UNL     1       1.567   0.194   0.719  1.00  0.00    -0.214 N 
HETATM   14  C   UNL     1       1.934  -0.495  -0.553  1.00  0.00     0.161 C 
HETATM   15  C   UNL     1       3.298  -1.250  -0.426  1.00  0.00     0.143 C 
HETATM   16  N   UNL     1       3.407  -2.071   0.807  1.00  0.00    -0.378 N 
HETATM   17  C   UNL     1       2.920  -1.418   2.041  1.00  0.00     0.143 C 
HETATM   18  C   UNL     1       1.496  -0.818   1.805  1.00  0.00     0.161 C 
BRANCH  16  19
HETATM   19  C   UNL     1       3.853  -3.386   0.781  1.00  0.00     0.032 A 
HETATM   20  C   UNL     1       4.546  -3.999   1.854  1.00  0.00     0.066 A 
HETATM   21  C   UNL     1       4.956  -5.345   1.796  1.00  0.00     0.070 A 
HETATM   22  C   UNL     1       4.671  -6.103   0.661  1.00  0.00     0.037 A 
HETATM   23  C   UNL     1       4.004  -5.528  -0.407  1.00  0.00     0.005 A 
HETATM   24  C   UNL     1       3.608  -4.194  -0.342  1.00  0.00     0.029 A 
BRANCH  21  25
HETATM   25  O   UNL     1       5.628  -6.058   2.753  1.00  0.00    -0.356 OA
HETATM   26  C   UNL     1       6.026  -5.385   3.936  1.00  0.00     0.210 C 
ENDBRANCH  21  25
ENDBRANCH  16  19
ENDBRANCH  12  13
BRANCH   1  27
HETATM   27  C   UNL     1       2.707   2.952   0.553  1.00  0.00     0.086 C 
HETATM   28  C   UNL     1       3.159   4.291   0.475  1.00  0.00     0.095 C 
HETATM   29  C   UNL     1       4.237   4.615  -0.349  1.00  0.00     0.040 C 
HETATM   30  C   UNL     1       5.117   3.633  -0.745  1.00  0.00     0.019 C 
HETATM   31  C   UNL     1       4.978   2.373  -0.180  1.00  0.00     0.050 C 
HETATM   32  C   UNL     1       3.752   2.039   0.430  1.00  0.00     0.049 C 
BRANCH  28  33
HETATM   33  O   UNL     1       2.453   5.284   1.096  1.00  0.00    -0.354 OA
HETATM   34  C   UNL     1       3.187   6.359   1.672  1.00  0.00     0.210 C 
ENDBRANCH  28  33
BRANCH  31  35
HETATM   35  C   UNL     1       6.168   1.450  -0.176  1.00  0.00     0.417 C 
HETATM   36  F   UNL     1       6.003   0.336   0.583  1.00  0.00    -0.166 F 
HETATM   37  F   UNL     1       6.523   1.027  -1.418  1.00  0.00    -0.166 F 
HETATM   38  F   UNL     1       7.268   2.076   0.334  1.00  0.00    -0.166 F 
ENDBRANCH  31  35
ENDBRANCH   1  27
BRANCH   2  39
HETATM   39  C   UNL     1       0.565   4.330  -1.064  1.00  0.00     0.141 C 
BRANCH  39  40
HETATM   40  C   UNL     1       0.098   3.404  -2.161  1.00  0.00     0.141 C 
HETATM   41  O   UNL     1       0.825   2.578  -2.708  1.00  0.00    -0.650 OA
BRANCH  40  42
HETATM   42  O   UNL     1      -1.164   3.609  -2.556  1.00  0.00    -0.776 OA
HETATM   43  H   UNL     1      -1.684   4.243  -2.040  1.00  0.00     0.167 HD
ENDBRANCH  40  42
ENDBRANCH  39  40
ENDBRANCH   2  39
TORSDOF 9
