REMARK  7 active torsions:
REMARK  status: ('A' for Active; 'I' for Inactive)
REMARK    1  A    between atoms: C_4  and  C_7 
REMARK    2  A    between atoms: C_10  and  C_13 
REMARK    3  A    between atoms: C_13  and  C_15 
REMARK    4  A    between atoms: C_15  and  O_16 
REMARK    5  A    between atoms: O_16  and  C_17 
REMARK    6  A    between atoms: C_17  and  C_19 
REMARK    7  A    between atoms: C_23  and  N_25 
ROOT
HETATM    1  C   UNL     1      11.355  -1.178  -2.706  1.00  0.00     0.041 A 
HETATM    2  C   UNL     1      11.785   0.134  -2.915  1.00  0.00     0.018 A 
HETATM    3  C   UNL     1      13.044   0.359  -3.455  1.00  0.00     0.003 A 
HETATM    4  C   UNL     1      13.862  -0.731  -3.783  1.00  0.00     0.030 A 
HETATM    5  C   UNL     1      13.455  -2.066  -3.596  1.00  0.00     0.046 A 
HETATM    6  C   UNL     1      12.195  -2.265  -3.028  1.00  0.00     0.048 A 
ENDROOT
BRANCH   5   7
HETATM    7  N   UNL     1      14.311  -3.166  -3.954  1.00  0.00    -0.252 N 
HETATM    8  C   UNL     1      15.444  -3.007  -4.714  1.00  0.00     0.237 C 
HETATM    9  O   UNL     1      15.818  -2.050  -5.377  1.00  0.00    -0.272 OA
HETATM   10  C   UNL     1      16.238  -4.257  -4.659  1.00  0.00     0.107 C 
HETATM   11  C   UNL     1      17.377  -4.154  -3.617  1.00  0.00     0.067 C 
HETATM   12  C   UNL     1      15.242  -5.350  -4.249  1.00  0.00     0.121 C 
HETATM   13  C   UNL     1      18.174  -5.414  -3.922  1.00  0.00    -0.041 A 
HETATM   14  C   UNL     1      16.819  -4.326  -2.193  1.00  0.00    -0.041 A 
HETATM   15  C   UNL     1      19.518  -5.414  -4.283  1.00  0.00     0.008 A 
HETATM   16  C   UNL     1      17.416  -6.617  -3.783  1.00  0.00    -0.026 A 
HETATM   17  C   UNL     1      20.147  -6.636  -4.490  1.00  0.00     0.001 A 
HETATM   18  C   UNL     1      19.431  -7.830  -4.339  1.00  0.00     0.001 A 
HETATM   19  C   UNL     1      18.070  -7.828  -3.989  1.00  0.00     0.010 A 
HETATM   20  C   UNL     1      15.965  -6.353  -3.276  1.00  0.00     0.086 C 
HETATM   21  C   UNL     1      16.123  -5.556  -1.976  1.00  0.00    -0.026 A 
HETATM   22 BR   UNL     1      14.921  -7.978  -3.130  1.00  0.00    -0.074 Br
HETATM   23  C   UNL     1      15.585  -5.849  -0.728  1.00  0.00     0.010 A 
HETATM   24  C   UNL     1      15.681  -4.893   0.282  1.00  0.00     0.001 A 
HETATM   25  C   UNL     1      16.323  -3.672   0.056  1.00  0.00     0.001 A 
HETATM   26  C   UNL     1      16.910  -3.384  -1.179  1.00  0.00     0.008 A 
HETATM   27  C   UNL     1      14.118  -4.506  -3.626  1.00  0.00     0.238 C 
HETATM   28  O   UNL     1      13.216  -4.999  -2.962  1.00  0.00    -0.272 OA
ENDBRANCH   5   7
BRANCH   1  29
HETATM   29  C   UNL     1      10.002  -1.390  -2.138  1.00  0.00     0.293 C 
HETATM   30  O   UNL     1       9.391  -0.547  -1.502  1.00  0.00    -0.259 OA
BRANCH  29  31
HETATM   31  O   UNL     1       9.577  -2.633  -2.451  1.00  0.00    -0.310 OA
BRANCH  31  32
HETATM   32  C   UNL     1       8.291  -3.008  -1.965  1.00  0.00     0.263 C 
BRANCH  32  33
HETATM   33  C   UNL     1       7.286  -3.205  -3.094  1.00  0.00     0.183 C 
HETATM   34  O   UNL     1       7.572  -3.038  -4.279  1.00  0.00    -0.290 OA
BRANCH  33  35
HETATM   35  C   UNL     1       5.907  -3.656  -2.728  1.00  0.00     0.012 A 
HETATM   36  C   UNL     1       4.976  -3.882  -3.745  1.00  0.00     0.016 A 
HETATM   37  C   UNL     1       3.698  -4.375  -3.442  1.00  0.00     0.013 A 
HETATM   38  C   UNL     1       3.317  -4.678  -2.123  1.00  0.00    -0.026 A 
HETATM   39  C   UNL     1       4.255  -4.398  -1.113  1.00  0.00     0.013 A 
HETATM   40  C   UNL     1       5.529  -3.893  -1.405  1.00  0.00     0.016 A 
BRANCH  38  41
HETATM   41  C   UNL     1       2.021  -5.331  -1.808  1.00  0.00    -0.026 A 
HETATM   42  C   UNL     1       1.427  -6.238  -2.708  1.00  0.00     0.012 A 
HETATM   43  C   UNL     1       0.252  -6.928  -2.388  1.00  0.00     0.001 A 
HETATM   44  C   UNL     1      -0.357  -6.733  -1.154  1.00  0.00     0.000 A 
HETATM   45  C   UNL     1       0.195  -5.831  -0.251  1.00  0.00     0.001 A 
HETATM   46  C   UNL     1       1.362  -5.132  -0.580  1.00  0.00     0.012 A 
ENDBRANCH  38  41
ENDBRANCH  33  35
ENDBRANCH  32  33
ENDBRANCH  31  32
ENDBRANCH  29  31
ENDBRANCH   1  29
TORSDOF 7
